!  Floats Input Parameters.
!
!svn $Id$
!========================================================= Hernan G. Arango ===
!  Copyright (c) 2002-2014 The ROMS/TOMS Group                                !
!    Licensed under a MIT/X style license                                     !
!    See License_ROMS.txt                                                     !
!==============================================================================
!                                                                             !
! Input parameters can be entered in ANY order, provided that the parameter   !
! KEYWORD (usually, upper case) is typed correctly followed by "="  or "=="   !
! symbols. Any comment lines are allowed and must begin with an exclamation   !
! mark (!) in column one.  Comments may  appear to the right of a parameter   !
! specification to improve documentation.  Comments will be ignored  during   !
! reading.  Blank lines are also allowed and ignored. Continuation lines in   !
! a parameter specification are allowed and must be preceded by a backslash   !
! (\).  In some instances, more than one value is required for a parameter.   !
! If fewer values are provided, the  last value  is assigned for the entire   !
! parameter array.  The multiplication symbol (*),  without blank spaces in   !
! between, is allowed for a parameter specification.  For example, in a two   !
! grids nested application:                                                   !
!                                                                             !
!    AKT_BAK == 2*1.0d-6  2*5.0d-6              ! m2/s                        !
!                                                                             !
! indicates that the first two entries of array AKT_BAK,  in fortran column-  !
! major order, will have the same value of "1.0d-6" for grid 1,  whereas the  !
! next two entries will have the same value of "5.0d-6" for grid 2.           !
!                                                                             !
! In multiple levels of nesting and/or multiple connected domains  step-ups,  !
! "Ngrids" entries are expected for some of these parameters.  In such case,  !
! the order of the entries for a parameter is extremely important.  It  must  !
! follow the same order (1:Ngrids) as in the state variable declaration. The  !
! USER may follow the above guidelines for specifying his/her values.  These  !
! parameters are marked by "==" plural symbol after the KEYWORD.              !
!                                                                             !
!==============================================================================
!
! Switch to control the computation of floats trajectories within nested
! and/or multiple connected grids, [1:Ngrids].
!
     Lfloats == T

! Switch to control the printing of floats positions to standard output
! file, [1:Ngrids].
!
      Fprint == T

! Flag indicating re-start from previous solution. If FRREC = 0, a new
! NetCDF output file is created.

       FRREC == 0

! If applicable, input script file name containing biological floats behavior
! model parameters.

     FBIONAM =  behavior_larvae.in

! Number of floats to release in each nested grid.  These values are
! essential because the FLOATS structure in "mod_floats" is dynamically
! allocated using these values, [1:Ngrids].

     NFLOATS == 5205

! Initial floats locations for all grids:
!
!   G      Nested grid number
!   C      Initial horizontal coordinate type (0: grid units, 1: spherical)
!   T      Float trajectory type (1: Lagrangian, 2: isobaric, 3: Geopotential)
!   N      Number floats to be released at (Fx0,Fy0,Fz0)
!   Ft0    Float release time (days) after model initialization
!   Fx0    Initial float X-location (grid units or longitude)
!   Fy0    Initial float Y-location (grid units or latitude)
!   Fz0    Initial float Z-location (grid units or depth)
!   Fdt    Float cluster release time interval (days)
!   Fdx    Float cluster X-distribution parameter
!   Fdy    Float cluster Y-distribution parameter
!   Fdz    Float cluster Z-distribution parameter

POS = G, C, T, N,   Ft0,     Fx0,    Fy0,    Fz0,    Fdt,    Fdx,    Fdy,   Fdz

1 1 1 1 1.000000 123.766004 24.041764 -27.756000 0.000000 0.000000 0.000000 0.000000
1 1 1 1 1.000000 123.777805 24.041704 -26.667000 0.000000 0.000000 0.000000 0.000000
1 1 1 1 1.000000 123.780755 24.041689 -26.508000 0.000000 0.000000 0.000000 0.000000
1 1 1 1 1.000000 123.783705 24.041674 -23.111000 0.000000 0.000000 0.000000 0.000000
1 1 1 1 1.000000 123.786656 24.041659 -23.411000 0.000000 0.000000 0.000000 0.000000
1 1 1 1 1.000000 123.789606 24.041644 -23.900000 0.000000 0.000000 0.000000 0.000000
1 1 1 1 1.000000 123.792556 24.041629 -26.762000 0.000000 0.000000 0.000000 0.000000
1 1 1 1 1.000000 123.745368 24.044575 -27.655000 0.000000 0.000000 0.000000 0.000000
1 1 1 1 1.000000 123.748318 24.044561 -24.900000 0.000000 0.000000 0.000000 0.000000
1 1 1 1 1.000000 123.751269 24.044546 -21.408000 0.000000 0.000000 0.000000 0.000000
1 1 1 1 1.000000 123.754219 24.044532 -20.588000 0.000000 0.000000 0.000000 0.000000
1 1 1 1 1.000000 123.757169 24.044517 -20.904000 0.000000 0.000000 0.000000 0.000000
1 1 1 1 1.000000 123.760120 24.044503 -17.267000 0.000000 0.000000 0.000000 0.000000
1 1 1 1 1.000000 123.763070 24.044488 -18.062000 0.000000 0.000000 0.000000 0.000000
1 1 1 1 1.000000 123.766020 24.044473 -15.597000 0.000000 0.000000 0.000000 0.000000
1 1 1 1 1.000000 123.768970 24.044458 -20.397000 0.000000 0.000000 0.000000 0.000000
1 1 1 1 1.000000 123.771921 24.044444 -18.149000 0.000000 0.000000 0.000000 0.000000
1 1 1 1 1.000000 123.774871 24.044429 -5.947100 0.000000 0.000000 0.000000 0.000000
1 1 1 1 1.000000 123.777821 24.044414 -2.997000 0.000000 0.000000 0.000000 0.000000
1 1 1 1 1.000000 123.780772 24.044399 -4.381100 0.000000 0.000000 0.000000 0.000000
1 1 1 1 1.000000 123.783722 24.044384 -4.763400 0.000000 0.000000 0.000000 0.000000
1 1 1 1 1.000000 123.786672 24.044369 -4.133300 0.000000 0.000000 0.000000 0.000000
1 1 1 1 1.000000 123.789622 24.044353 -3.461300 0.000000 0.000000 0.000000 0.000000
1 1 1 1 1.000000 123.792573 24.044338 -6.194700 0.000000 0.000000 0.000000 0.000000
1 1 1 1 1.000000 123.795523 24.044323 -23.222000 0.000000 0.000000 0.000000 0.000000
1 1 1 1 1.000000 123.739483 24.047313 -26.984000 0.000000 0.000000 0.000000 0.000000
1 1 1 1 1.000000 123.742433 24.047299 -18.300000 0.000000 0.000000 0.000000 0.000000
1 1 1 1 1.000000 123.745384 24.047285 -11.691000 0.000000 0.000000 0.000000 0.000000
1 1 1 1 1.000000 123.748334 24.047270 -9.107000 0.000000 0.000000 0.000000 0.000000
1 1 1 1 1.000000 123.751285 24.047256 -6.202000 0.000000 0.000000 0.000000 0.000000
1 1 1 1 1.000000 123.754235 24.047241 -6.672100 0.000000 0.000000 0.000000 0.000000
1 1 1 1 1.000000 123.757185 24.047227 -1.687100 0.000000 0.000000 0.000000 0.000000
1 1 1 1 1.000000 123.760136 24.047212 -1.920700 0.000000 0.000000 0.000000 0.000000
1 1 1 1 1.000000 123.763086 24.047197 -1.633300 0.000000 0.000000 0.000000 0.000000
1 1 1 1 1.000000 123.798490 24.047017 -21.490000 0.000000 0.000000 0.000000 0.000000
1 1 1 1 1.000000 123.801440 24.047001 -28.078000 0.000000 0.000000 0.000000 0.000000
1 1 1 1 1.000000 123.736548 24.050037 -22.675000 0.000000 0.000000 0.000000 0.000000
1 1 1 1 1.000000 123.739499 24.050023 -14.069000 0.000000 0.000000 0.000000 0.000000
1 1 1 1 1.000000 123.742449 24.050008 -8.357000 0.000000 0.000000 0.000000 0.000000
1 1 1 1 1.000000 123.745399 24.049994 -5.677800 0.000000 0.000000 0.000000 0.000000
1 1 1 1 1.000000 123.748350 24.049980 -2.692900 0.000000 0.000000 0.000000 0.000000
1 1 1 1 1.000000 123.751300 24.049965 -0.300000 0.000000 0.000000 0.000000 0.000000
1 1 1 1 1.000000 123.804407 24.049695 -9.670000 0.000000 0.000000 0.000000 0.000000
1 1 1 1 1.000000 123.733613 24.052761 -24.758000 0.000000 0.000000 0.000000 0.000000
1 1 1 1 1.000000 123.736564 24.052746 -11.592000 0.000000 0.000000 0.000000 0.000000
1 1 1 1 1.000000 123.739514 24.052732 -7.082600 0.000000 0.000000 0.000000 0.000000
1 1 1 1 1.000000 123.742465 24.052718 -5.786500 0.000000 0.000000 0.000000 0.000000
1 1 1 1 1.000000 123.745415 24.052704 -3.202000 0.000000 0.000000 0.000000 0.000000
1 1 1 1 1.000000 123.748366 24.052689 -0.672100 0.000000 0.000000 0.000000 0.000000
1 1 1 1 1.000000 123.807375 24.052389 -25.175000 0.000000 0.000000 0.000000 0.000000
1 1 1 1 1.000000 123.730678 24.055484 -24.039000 0.000000 0.000000 0.000000 0.000000
1 1 1 1 1.000000 123.733629 24.055470 -16.991000 0.000000 0.000000 0.000000 0.000000
1 1 1 1 1.000000 123.736579 24.055456 -8.930000 0.000000 0.000000 0.000000 0.000000
1 1 1 1 1.000000 123.739530 24.055442 -5.530800 0.000000 0.000000 0.000000 0.000000
1 1 1 1 1.000000 123.742480 24.055427 -3.652900 0.000000 0.000000 0.000000 0.000000
1 1 1 1 1.000000 123.745431 24.055413 -2.228600 0.000000 0.000000 0.000000 0.000000
1 1 1 1 1.000000 123.807392 24.055099 -0.800000 0.000000 0.000000 0.000000 0.000000
1 1 1 1 1.000000 123.730693 24.058194 -20.534000 0.000000 0.000000 0.000000 0.000000
1 1 1 1 1.000000 123.733644 24.058179 -14.029000 0.000000 0.000000 0.000000 0.000000
1 1 1 1 1.000000 123.736595 24.058165 -7.477800 0.000000 0.000000 0.000000 0.000000
1 1 1 1 1.000000 123.739545 24.058151 -4.850000 0.000000 0.000000 0.000000 0.000000
1 1 1 1 1.000000 123.742496 24.058137 -2.966700 0.000000 0.000000 0.000000 0.000000
1 1 1 1 1.000000 123.745446 24.058122 -0.691300 0.000000 0.000000 0.000000 0.000000
1 1 1 1 1.000000 123.810359 24.057792 -11.157000 0.000000 0.000000 0.000000 0.000000
1 1 1 1 1.000000 123.727758 24.060917 -26.995000 0.000000 0.000000 0.000000 0.000000
1 1 1 1 1.000000 123.730709 24.060903 -23.277000 0.000000 0.000000 0.000000 0.000000
1 1 1 1 1.000000 123.733659 24.060889 -21.740000 0.000000 0.000000 0.000000 0.000000
1 1 1 1 1.000000 123.736610 24.060875 -13.729000 0.000000 0.000000 0.000000 0.000000
1 1 1 1 1.000000 123.739561 24.060860 -5.655600 0.000000 0.000000 0.000000 0.000000
1 1 1 1 1.000000 123.742511 24.060846 -5.213800 0.000000 0.000000 0.000000 0.000000
1 1 1 1 1.000000 123.745462 24.060832 -1.495700 0.000000 0.000000 0.000000 0.000000
1 1 1 1 1.000000 123.813327 24.060486 -11.078000 0.000000 0.000000 0.000000 0.000000
1 1 1 1 1.000000 123.718921 24.063668 -28.947000 0.000000 0.000000 0.000000 0.000000
1 1 1 1 1.000000 123.733675 24.063598 -26.862000 0.000000 0.000000 0.000000 0.000000
1 1 1 1 1.000000 123.736625 24.063584 -21.615000 0.000000 0.000000 0.000000 0.000000
1 1 1 1 1.000000 123.739576 24.063570 -9.687000 0.000000 0.000000 0.000000 0.000000
1 1 1 1 1.000000 123.742527 24.063556 -7.938300 0.000000 0.000000 0.000000 0.000000
1 1 1 1 1.000000 123.745478 24.063541 -2.997000 0.000000 0.000000 0.000000 0.000000
1 1 1 1 1.000000 123.813344 24.063196 -5.875800 0.000000 0.000000 0.000000 0.000000
1 1 1 1 1.000000 123.718936 24.066378 -26.692000 0.000000 0.000000 0.000000 0.000000
1 1 1 1 1.000000 123.721887 24.066364 -24.130000 0.000000 0.000000 0.000000 0.000000
1 1 1 1 1.000000 123.730739 24.066322 -27.467000 0.000000 0.000000 0.000000 0.000000
1 1 1 1 1.000000 123.733690 24.066308 -23.200000 0.000000 0.000000 0.000000 0.000000
1 1 1 1 1.000000 123.736641 24.066294 -14.376000 0.000000 0.000000 0.000000 0.000000
1 1 1 1 1.000000 123.739592 24.066279 -9.473000 0.000000 0.000000 0.000000 0.000000
1 1 1 1 1.000000 123.742543 24.066265 -5.995700 0.000000 0.000000 0.000000 0.000000
1 1 1 1 1.000000 123.745493 24.066251 -3.894600 0.000000 0.000000 0.000000 0.000000
1 1 1 1 1.000000 123.748444 24.066236 -0.733300 0.000000 0.000000 0.000000 0.000000
1 1 1 1 1.000000 123.757297 24.066193 -2.665400 0.000000 0.000000 0.000000 0.000000
1 1 1 1 1.000000 123.810410 24.065921 -1.133300 0.000000 0.000000 0.000000 0.000000
1 1 1 1 1.000000 123.813361 24.065905 -13.411000 0.000000 0.000000 0.000000 0.000000
1 1 1 1 1.000000 123.716000 24.069101 -26.561000 0.000000 0.000000 0.000000 0.000000
1 1 1 1 1.000000 123.718951 24.069087 -21.157000 0.000000 0.000000 0.000000 0.000000
1 1 1 1 1.000000 123.721902 24.069073 -20.418000 0.000000 0.000000 0.000000 0.000000
1 1 1 1 1.000000 123.724853 24.069059 -28.692000 0.000000 0.000000 0.000000 0.000000
1 1 1 1 1.000000 123.730755 24.069031 -20.633000 0.000000 0.000000 0.000000 0.000000
1 1 1 1 1.000000 123.733706 24.069017 -15.621000 0.000000 0.000000 0.000000 0.000000
1 1 1 1 1.000000 123.736656 24.069003 -12.477000 0.000000 0.000000 0.000000 0.000000
1 1 1 1 1.000000 123.739607 24.068989 -8.761000 0.000000 0.000000 0.000000 0.000000
1 1 1 1 1.000000 123.742558 24.068974 -7.871400 0.000000 0.000000 0.000000 0.000000
1 1 1 1 1.000000 123.745509 24.068960 -6.196600 0.000000 0.000000 0.000000 0.000000
1 1 1 1 1.000000 123.748460 24.068946 -1.435100 0.000000 0.000000 0.000000 0.000000
1 1 1 1 1.000000 123.751411 24.068931 -0.385100 0.000000 0.000000 0.000000 0.000000
1 1 1 1 1.000000 123.754362 24.068917 -4.344800 0.000000 0.000000 0.000000 0.000000
1 1 1 1 1.000000 123.757312 24.068902 -5.694700 0.000000 0.000000 0.000000 0.000000
1 1 1 1 1.000000 123.760263 24.068888 -2.164200 0.000000 0.000000 0.000000 0.000000
1 1 1 1 1.000000 123.801575 24.068677 -4.651400 0.000000 0.000000 0.000000 0.000000
1 1 1 1 1.000000 123.804526 24.068661 -3.925000 0.000000 0.000000 0.000000 0.000000
1 1 1 1 1.000000 123.807476 24.068646 -18.856000 0.000000 0.000000 0.000000 0.000000
1 1 1 1 1.000000 123.810427 24.068630 -23.406000 0.000000 0.000000 0.000000 0.000000
1 1 1 1 1.000000 123.713064 24.071824 -28.941000 0.000000 0.000000 0.000000 0.000000
1 1 1 1 1.000000 123.716015 24.071811 -25.125000 0.000000 0.000000 0.000000 0.000000
1 1 1 1 1.000000 123.718966 24.071797 -18.941000 0.000000 0.000000 0.000000 0.000000
1 1 1 1 1.000000 123.721917 24.071783 -14.900000 0.000000 0.000000 0.000000 0.000000
1 1 1 1 1.000000 123.724868 24.071769 -14.524000 0.000000 0.000000 0.000000 0.000000
1 1 1 1 1.000000 123.727819 24.071755 -14.091000 0.000000 0.000000 0.000000 0.000000
1 1 1 1 1.000000 123.730770 24.071741 -13.092000 0.000000 0.000000 0.000000 0.000000
1 1 1 1 1.000000 123.733721 24.071727 -12.586000 0.000000 0.000000 0.000000 0.000000
1 1 1 1 1.000000 123.736672 24.071712 -13.179000 0.000000 0.000000 0.000000 0.000000
1 1 1 1 1.000000 123.739623 24.071698 -12.531000 0.000000 0.000000 0.000000 0.000000
1 1 1 1 1.000000 123.742574 24.071684 -11.596000 0.000000 0.000000 0.000000 0.000000
1 1 1 1 1.000000 123.745525 24.071670 -10.032000 0.000000 0.000000 0.000000 0.000000
1 1 1 1 1.000000 123.748476 24.071655 -6.560900 0.000000 0.000000 0.000000 0.000000
1 1 1 1 1.000000 123.751427 24.071641 -9.955000 0.000000 0.000000 0.000000 0.000000
1 1 1 1 1.000000 123.754377 24.071626 -9.853000 0.000000 0.000000 0.000000 0.000000
1 1 1 1 1.000000 123.757328 24.071612 -6.068300 0.000000 0.000000 0.000000 0.000000
1 1 1 1 1.000000 123.760279 24.071597 -4.642100 0.000000 0.000000 0.000000 0.000000
1 1 1 1 1.000000 123.763230 24.071582 -0.855600 0.000000 0.000000 0.000000 0.000000
1 1 1 1 1.000000 123.766181 24.071567 -2.748300 0.000000 0.000000 0.000000 0.000000
1 1 1 1 1.000000 123.769132 24.071553 -0.807700 0.000000 0.000000 0.000000 0.000000
1 1 1 1 1.000000 123.789788 24.071447 -0.522200 0.000000 0.000000 0.000000 0.000000
1 1 1 1 1.000000 123.792739 24.071432 -5.851000 0.000000 0.000000 0.000000 0.000000
1 1 1 1 1.000000 123.795690 24.071417 -14.935000 0.000000 0.000000 0.000000 0.000000
1 1 1 1 1.000000 123.798641 24.071401 -19.323000 0.000000 0.000000 0.000000 0.000000
1 1 1 1 1.000000 123.801592 24.071386 -26.586000 0.000000 0.000000 0.000000 0.000000
1 1 1 1 1.000000 123.713079 24.074534 -24.380000 0.000000 0.000000 0.000000 0.000000
1 1 1 1 1.000000 123.716030 24.074520 -19.935000 0.000000 0.000000 0.000000 0.000000
1 1 1 1 1.000000 123.718981 24.074506 -15.168000 0.000000 0.000000 0.000000 0.000000
1 1 1 1 1.000000 123.721932 24.074492 -10.712000 0.000000 0.000000 0.000000 0.000000
1 1 1 1 1.000000 123.724883 24.074478 -8.300000 0.000000 0.000000 0.000000 0.000000
1 1 1 1 1.000000 123.727834 24.074464 -8.800000 0.000000 0.000000 0.000000 0.000000
1 1 1 1 1.000000 123.730785 24.074450 -10.367000 0.000000 0.000000 0.000000 0.000000
1 1 1 1 1.000000 123.733736 24.074436 -13.209000 0.000000 0.000000 0.000000 0.000000
1 1 1 1 1.000000 123.736687 24.074422 -15.856000 0.000000 0.000000 0.000000 0.000000
1 1 1 1 1.000000 123.739638 24.074408 -17.925000 0.000000 0.000000 0.000000 0.000000
1 1 1 1 1.000000 123.742589 24.074393 -20.822000 0.000000 0.000000 0.000000 0.000000
1 1 1 1 1.000000 123.745540 24.074379 -22.594000 0.000000 0.000000 0.000000 0.000000
1 1 1 1 1.000000 123.748491 24.074365 -23.220000 0.000000 0.000000 0.000000 0.000000
1 1 1 1 1.000000 123.751442 24.074350 -24.608000 0.000000 0.000000 0.000000 0.000000
1 1 1 1 1.000000 123.754393 24.074336 -18.819000 0.000000 0.000000 0.000000 0.000000
1 1 1 1 1.000000 123.757344 24.074321 -11.368000 0.000000 0.000000 0.000000 0.000000
1 1 1 1 1.000000 123.760295 24.074306 -7.508300 0.000000 0.000000 0.000000 0.000000
1 1 1 1 1.000000 123.763246 24.074292 -6.603000 0.000000 0.000000 0.000000 0.000000
1 1 1 1 1.000000 123.766197 24.074277 -7.638500 0.000000 0.000000 0.000000 0.000000
1 1 1 1 1.000000 123.769148 24.074262 -8.938000 0.000000 0.000000 0.000000 0.000000
1 1 1 1 1.000000 123.772099 24.074247 -6.425000 0.000000 0.000000 0.000000 0.000000
1 1 1 1 1.000000 123.775050 24.074232 -5.331300 0.000000 0.000000 0.000000 0.000000
1 1 1 1 1.000000 123.778001 24.074217 -5.724200 0.000000 0.000000 0.000000 0.000000
1 1 1 1 1.000000 123.780952 24.074202 -7.883300 0.000000 0.000000 0.000000 0.000000
1 1 1 1 1.000000 123.783903 24.074187 -8.061900 0.000000 0.000000 0.000000 0.000000
1 1 1 1 1.000000 123.786854 24.074172 -22.923000 0.000000 0.000000 0.000000 0.000000
1 1 1 1 1.000000 123.707192 24.077271 -25.903000 0.000000 0.000000 0.000000 0.000000
1 1 1 1 1.000000 123.710143 24.077257 -26.258000 0.000000 0.000000 0.000000 0.000000
1 1 1 1 1.000000 123.713094 24.077243 -23.070000 0.000000 0.000000 0.000000 0.000000
1 1 1 1 1.000000 123.716045 24.077229 -16.337000 0.000000 0.000000 0.000000 0.000000
1 1 1 1 1.000000 123.718997 24.077216 -11.090000 0.000000 0.000000 0.000000 0.000000
1 1 1 1 1.000000 123.721948 24.077202 -8.563000 0.000000 0.000000 0.000000 0.000000
1 1 1 1 1.000000 123.724899 24.077188 -6.487500 0.000000 0.000000 0.000000 0.000000
1 1 1 1 1.000000 123.727850 24.077174 -6.754500 0.000000 0.000000 0.000000 0.000000
1 1 1 1 1.000000 123.730801 24.077160 -9.958000 0.000000 0.000000 0.000000 0.000000
1 1 1 1 1.000000 123.733752 24.077145 -14.110000 0.000000 0.000000 0.000000 0.000000
1 1 1 1 1.000000 123.736703 24.077131 -16.443000 0.000000 0.000000 0.000000 0.000000
1 1 1 1 1.000000 123.739654 24.077117 -18.590000 0.000000 0.000000 0.000000 0.000000
1 1 1 1 1.000000 123.742605 24.077103 -25.647000 0.000000 0.000000 0.000000 0.000000
1 1 1 1 1.000000 123.745556 24.077088 -28.912000 0.000000 0.000000 0.000000 0.000000
1 1 1 1 1.000000 123.760311 24.077016 -23.685000 0.000000 0.000000 0.000000 0.000000
1 1 1 1 1.000000 123.763262 24.077001 -22.407000 0.000000 0.000000 0.000000 0.000000
1 1 1 1 1.000000 123.766213 24.076986 -28.118000 0.000000 0.000000 0.000000 0.000000
1 1 1 1 1.000000 123.769164 24.076972 -27.206000 0.000000 0.000000 0.000000 0.000000
1 1 1 1 1.000000 123.707207 24.079980 -26.053000 0.000000 0.000000 0.000000 0.000000
1 1 1 1 1.000000 123.710158 24.079966 -22.825000 0.000000 0.000000 0.000000 0.000000
1 1 1 1 1.000000 123.713109 24.079953 -20.785000 0.000000 0.000000 0.000000 0.000000
1 1 1 1 1.000000 123.716061 24.079939 -16.688000 0.000000 0.000000 0.000000 0.000000
1 1 1 1 1.000000 123.719012 24.079925 -11.031000 0.000000 0.000000 0.000000 0.000000
1 1 1 1 1.000000 123.721963 24.079911 -7.947100 0.000000 0.000000 0.000000 0.000000
1 1 1 1 1.000000 123.724914 24.079897 -8.081300 0.000000 0.000000 0.000000 0.000000
1 1 1 1 1.000000 123.727865 24.079883 -8.247400 0.000000 0.000000 0.000000 0.000000
1 1 1 1 1.000000 123.730816 24.079869 -10.903000 0.000000 0.000000 0.000000 0.000000
1 1 1 1 1.000000 123.733767 24.079855 -15.820000 0.000000 0.000000 0.000000 0.000000
1 1 1 1 1.000000 123.736718 24.079841 -19.842000 0.000000 0.000000 0.000000 0.000000
1 1 1 1 1.000000 123.739669 24.079826 -21.938000 0.000000 0.000000 0.000000 0.000000
1 1 1 1 1.000000 123.698368 24.082730 -27.858000 0.000000 0.000000 0.000000 0.000000
1 1 1 1 1.000000 123.701320 24.082717 -23.744000 0.000000 0.000000 0.000000 0.000000
1 1 1 1 1.000000 123.704271 24.082703 -24.224000 0.000000 0.000000 0.000000 0.000000
1 1 1 1 1.000000 123.707222 24.082689 -21.661000 0.000000 0.000000 0.000000 0.000000
1 1 1 1 1.000000 123.710173 24.082676 -20.846000 0.000000 0.000000 0.000000 0.000000
1 1 1 1 1.000000 123.713124 24.082662 -18.377000 0.000000 0.000000 0.000000 0.000000
1 1 1 1 1.000000 123.716076 24.082648 -18.022000 0.000000 0.000000 0.000000 0.000000
1 1 1 1 1.000000 123.719027 24.082634 -16.019000 0.000000 0.000000 0.000000 0.000000
1 1 1 1 1.000000 123.721978 24.082621 -11.538000 0.000000 0.000000 0.000000 0.000000
1 1 1 1 1.000000 123.724929 24.082607 -10.243000 0.000000 0.000000 0.000000 0.000000
1 1 1 1 1.000000 123.727880 24.082593 -9.363000 0.000000 0.000000 0.000000 0.000000
1 1 1 1 1.000000 123.730831 24.082578 -11.314000 0.000000 0.000000 0.000000 0.000000
1 1 1 1 1.000000 123.733783 24.082564 -18.157000 0.000000 0.000000 0.000000 0.000000
1 1 1 1 1.000000 123.736734 24.082550 -22.526000 0.000000 0.000000 0.000000 0.000000
1 1 1 1 1.000000 123.698383 24.085440 -26.998000 0.000000 0.000000 0.000000 0.000000
1 1 1 1 1.000000 123.701334 24.085426 -24.249000 0.000000 0.000000 0.000000 0.000000
1 1 1 1 1.000000 123.704286 24.085413 -21.600000 0.000000 0.000000 0.000000 0.000000
1 1 1 1 1.000000 123.707237 24.085399 -20.014000 0.000000 0.000000 0.000000 0.000000
1 1 1 1 1.000000 123.710188 24.085385 -20.679000 0.000000 0.000000 0.000000 0.000000
1 1 1 1 1.000000 123.713139 24.085372 -21.846000 0.000000 0.000000 0.000000 0.000000
1 1 1 1 1.000000 123.716091 24.085358 -20.181000 0.000000 0.000000 0.000000 0.000000
1 1 1 1 1.000000 123.719042 24.085344 -16.777000 0.000000 0.000000 0.000000 0.000000
1 1 1 1 1.000000 123.721993 24.085330 -15.037000 0.000000 0.000000 0.000000 0.000000
1 1 1 1 1.000000 123.724944 24.085316 -14.628000 0.000000 0.000000 0.000000 0.000000
1 1 1 1 1.000000 123.727896 24.085302 -14.026000 0.000000 0.000000 0.000000 0.000000
1 1 1 1 1.000000 123.730847 24.085288 -16.300000 0.000000 0.000000 0.000000 0.000000
1 1 1 1 1.000000 123.733798 24.085274 -20.346000 0.000000 0.000000 0.000000 0.000000
1 1 1 1 1.000000 123.698398 24.088149 -26.883000 0.000000 0.000000 0.000000 0.000000
1 1 1 1 1.000000 123.701349 24.088136 -23.443000 0.000000 0.000000 0.000000 0.000000
1 1 1 1 1.000000 123.704300 24.088122 -21.300000 0.000000 0.000000 0.000000 0.000000
1 1 1 1 1.000000 123.707252 24.088108 -20.653000 0.000000 0.000000 0.000000 0.000000
1 1 1 1 1.000000 123.710203 24.088095 -21.744000 0.000000 0.000000 0.000000 0.000000
1 1 1 1 1.000000 123.713154 24.088081 -23.480000 0.000000 0.000000 0.000000 0.000000
1 1 1 1 1.000000 123.716106 24.088067 -25.662000 0.000000 0.000000 0.000000 0.000000
1 1 1 1 1.000000 123.719057 24.088053 -22.959000 0.000000 0.000000 0.000000 0.000000
1 1 1 1 1.000000 123.722008 24.088039 -25.034000 0.000000 0.000000 0.000000 0.000000
1 1 1 1 1.000000 123.724960 24.088025 -27.808000 0.000000 0.000000 0.000000 0.000000
1 1 1 1 1.000000 123.727911 24.088011 -23.350000 0.000000 0.000000 0.000000 0.000000
1 1 1 1 1.000000 123.698412 24.090859 -28.035000 0.000000 0.000000 0.000000 0.000000
1 1 1 1 1.000000 123.701364 24.090845 -24.748000 0.000000 0.000000 0.000000 0.000000
1 1 1 1 1.000000 123.704315 24.090831 -24.100000 0.000000 0.000000 0.000000 0.000000
1 1 1 1 1.000000 123.707267 24.090818 -25.385000 0.000000 0.000000 0.000000 0.000000
1 1 1 1 1.000000 123.710218 24.090804 -25.831000 0.000000 0.000000 0.000000 0.000000
1 1 1 1 1.000000 123.713169 24.090790 -27.020000 0.000000 0.000000 0.000000 0.000000
1 1 1 1 1.000000 123.941231 24.200642 -28.300000 0.000000 0.000000 0.000000 0.000000
1 1 1 1 1.000000 123.858544 24.203839 -28.800000 0.000000 0.000000 0.000000 0.000000
1 1 1 1 1.000000 123.929436 24.203423 -27.765000 0.000000 0.000000 0.000000 0.000000
1 1 1 1 1.000000 123.932390 24.203405 -20.639000 0.000000 0.000000 0.000000 0.000000
1 1 1 1 1.000000 123.935344 24.203387 -10.621000 0.000000 0.000000 0.000000 0.000000
1 1 1 1 1.000000 123.938297 24.203369 -7.759600 0.000000 0.000000 0.000000 0.000000
1 1 1 1 1.000000 123.941251 24.203351 -14.046000 0.000000 0.000000 0.000000 0.000000
1 1 1 1 1.000000 123.855608 24.206565 -26.930000 0.000000 0.000000 0.000000 0.000000
1 1 1 1 1.000000 123.858562 24.206549 -26.550000 0.000000 0.000000 0.000000 0.000000
1 1 1 1 1.000000 123.920594 24.206186 -27.427000 0.000000 0.000000 0.000000 0.000000
1 1 1 1 1.000000 123.923548 24.206168 -15.800000 0.000000 0.000000 0.000000 0.000000
1 1 1 1 1.000000 123.926502 24.206151 -8.300000 0.000000 0.000000 0.000000 0.000000
1 1 1 1 1.000000 123.929456 24.206133 -6.185500 0.000000 0.000000 0.000000 0.000000
1 1 1 1 1.000000 123.941271 24.206060 -14.095000 0.000000 0.000000 0.000000 0.000000
1 1 1 1 1.000000 123.852672 24.209291 -27.907000 0.000000 0.000000 0.000000 0.000000
1 1 1 1 1.000000 123.855626 24.209275 -25.691000 0.000000 0.000000 0.000000 0.000000
1 1 1 1 1.000000 123.858580 24.209258 -27.958000 0.000000 0.000000 0.000000 0.000000
1 1 1 1 1.000000 123.914706 24.208931 -24.300000 0.000000 0.000000 0.000000 0.000000
1 1 1 1 1.000000 123.917659 24.208913 -17.635000 0.000000 0.000000 0.000000 0.000000
1 1 1 1 1.000000 123.920613 24.208896 -6.350400 0.000000 0.000000 0.000000 0.000000
1 1 1 1 1.000000 123.923567 24.208878 -4.819500 0.000000 0.000000 0.000000 0.000000
1 1 1 1 1.000000 123.935383 24.208806 -0.470000 0.000000 0.000000 0.000000 0.000000
1 1 1 1 1.000000 123.941291 24.208769 -14.606000 0.000000 0.000000 0.000000 0.000000
1 1 1 1 1.000000 124.009230 24.208334 -28.708000 0.000000 0.000000 0.000000 0.000000
1 1 1 1 1.000000 124.012184 24.208315 -24.548000 0.000000 0.000000 0.000000 0.000000
1 1 1 1 1.000000 124.015138 24.208295 -27.301000 0.000000 0.000000 0.000000 0.000000
1 1 1 1 1.000000 123.908817 24.211676 -28.300000 0.000000 0.000000 0.000000 0.000000
1 1 1 1 1.000000 123.911771 24.211658 -20.550000 0.000000 0.000000 0.000000 0.000000
1 1 1 1 1.000000 123.914725 24.211640 -8.300000 0.000000 0.000000 0.000000 0.000000
1 1 1 1 1.000000 123.917679 24.211623 -3.010300 0.000000 0.000000 0.000000 0.000000
1 1 1 1 1.000000 123.941311 24.211479 -13.300000 0.000000 0.000000 0.000000 0.000000
1 1 1 1 1.000000 124.000390 24.211102 -24.975000 0.000000 0.000000 0.000000 0.000000
1 1 1 1 1.000000 124.003344 24.211083 -15.800000 0.000000 0.000000 0.000000 0.000000
1 1 1 1 1.000000 124.006298 24.211063 -8.300000 0.000000 0.000000 0.000000 0.000000
1 1 1 1 1.000000 124.009252 24.211043 -5.728100 0.000000 0.000000 0.000000 0.000000
1 1 1 1 1.000000 124.012205 24.211024 -4.685300 0.000000 0.000000 0.000000 0.000000
1 1 1 1 1.000000 124.015159 24.211004 -5.578600 0.000000 0.000000 0.000000 0.000000
1 1 1 1 1.000000 124.018113 24.210985 -13.300000 0.000000 0.000000 0.000000 0.000000
1 1 1 1 1.000000 124.021067 24.210965 -28.300000 0.000000 0.000000 0.000000 0.000000
1 1 1 1 1.000000 123.905882 24.214403 -27.532000 0.000000 0.000000 0.000000 0.000000
1 1 1 1 1.000000 123.908836 24.214385 -19.300000 0.000000 0.000000 0.000000 0.000000
1 1 1 1 1.000000 123.911790 24.214367 -4.213200 0.000000 0.000000 0.000000 0.000000
1 1 1 1 1.000000 123.920652 24.214314 -0.683700 0.000000 0.000000 0.000000 0.000000
1 1 1 1 1.000000 123.941331 24.214188 -8.300000 0.000000 0.000000 0.000000 0.000000
1 1 1 1 1.000000 123.997457 24.213831 -26.649000 0.000000 0.000000 0.000000 0.000000
1 1 1 1 1.000000 124.000411 24.213811 -13.300000 0.000000 0.000000 0.000000 0.000000
1 1 1 1 1.000000 124.003365 24.213792 -4.685300 0.000000 0.000000 0.000000 0.000000
1 1 1 1 1.000000 124.021089 24.213674 -6.826900 0.000000 0.000000 0.000000 0.000000
1 1 1 1 1.000000 124.024043 24.213654 -25.800000 0.000000 0.000000 0.000000 0.000000
1 1 1 1 1.000000 123.905901 24.217112 -20.498000 0.000000 0.000000 0.000000 0.000000
1 1 1 1 1.000000 123.908855 24.217094 -5.800000 0.000000 0.000000 0.000000 0.000000
1 1 1 1 1.000000 123.914764 24.217059 -0.929800 0.000000 0.000000 0.000000 0.000000
1 1 1 1 1.000000 123.917718 24.217041 -0.391400 0.000000 0.000000 0.000000 0.000000
1 1 1 1 1.000000 123.941351 24.216897 -9.337000 0.000000 0.000000 0.000000 0.000000
1 1 1 1 1.000000 123.997478 24.216540 -18.300000 0.000000 0.000000 0.000000 0.000000
1 1 1 1 1.000000 124.000432 24.216520 -5.131000 0.000000 0.000000 0.000000 0.000000
1 1 1 1 1.000000 124.006340 24.216481 -0.664400 0.000000 0.000000 0.000000 0.000000
1 1 1 1 1.000000 124.009294 24.216462 -0.534100 0.000000 0.000000 0.000000 0.000000
1 1 1 1 1.000000 124.012248 24.216442 -0.534100 0.000000 0.000000 0.000000 0.000000
1 1 1 1 1.000000 124.015202 24.216423 -0.664400 0.000000 0.000000 0.000000 0.000000
1 1 1 1 1.000000 124.024064 24.216363 -7.323800 0.000000 0.000000 0.000000 0.000000
1 1 1 1 1.000000 124.027018 24.216343 -20.703000 0.000000 0.000000 0.000000 0.000000
1 1 1 1 1.000000 123.902966 24.219839 -26.356000 0.000000 0.000000 0.000000 0.000000
1 1 1 1 1.000000 123.905920 24.219821 -14.698000 0.000000 0.000000 0.000000 0.000000
1 1 1 1 1.000000 123.914783 24.219768 -0.297400 0.000000 0.000000 0.000000 0.000000
1 1 1 1 1.000000 123.917737 24.219751 -0.089100 0.000000 0.000000 0.000000 0.000000
1 1 1 1 1.000000 123.923645 24.219715 -0.157900 0.000000 0.000000 0.000000 0.000000
1 1 1 1 1.000000 123.935462 24.219643 -0.280000 0.000000 0.000000 0.000000 0.000000
1 1 1 1 1.000000 123.944325 24.219588 -25.968000 0.000000 0.000000 0.000000 0.000000
1 1 1 1 1.000000 123.997499 24.219249 -7.290900 0.000000 0.000000 0.000000 0.000000
1 1 1 1 1.000000 124.003407 24.219210 -0.406000 0.000000 0.000000 0.000000 0.000000
1 1 1 1 1.000000 124.006361 24.219191 -0.254300 0.000000 0.000000 0.000000 0.000000
1 1 1 1 1.000000 124.009316 24.219171 -0.195900 0.000000 0.000000 0.000000 0.000000
1 1 1 1 1.000000 124.012270 24.219151 -0.534100 0.000000 0.000000 0.000000 0.000000
1 1 1 1 1.000000 124.015224 24.219132 -0.625100 0.000000 0.000000 0.000000 0.000000
1 1 1 1 1.000000 124.018178 24.219112 -0.707000 0.000000 0.000000 0.000000 0.000000
1 1 1 1 1.000000 124.021132 24.219092 -0.493500 0.000000 0.000000 0.000000 0.000000
1 1 1 1 1.000000 124.027040 24.219053 -6.845700 0.000000 0.000000 0.000000 0.000000
1 1 1 1 1.000000 124.029994 24.219033 -13.300000 0.000000 0.000000 0.000000 0.000000
1 1 1 1 1.000000 124.032948 24.219013 -27.050000 0.000000 0.000000 0.000000 0.000000
1 1 1 1 1.000000 123.902985 24.222548 -28.300000 0.000000 0.000000 0.000000 0.000000
1 1 1 1 1.000000 123.905939 24.222531 -8.300000 0.000000 0.000000 0.000000 0.000000
1 1 1 1 1.000000 123.908894 24.222513 -4.362200 0.000000 0.000000 0.000000 0.000000
1 1 1 1 1.000000 123.911848 24.222495 -0.000000 0.000000 0.000000 0.000000 0.000000
1 1 1 1 1.000000 123.914802 24.222478 -2.114800 0.000000 0.000000 0.000000 0.000000
1 1 1 1 1.000000 123.917757 24.222460 -1.373200 0.000000 0.000000 0.000000 0.000000
1 1 1 1 1.000000 123.920711 24.222442 -0.539500 0.000000 0.000000 0.000000 0.000000
1 1 1 1 1.000000 123.923665 24.222424 -0.563300 0.000000 0.000000 0.000000 0.000000
1 1 1 1 1.000000 123.926619 24.222406 -0.225700 0.000000 0.000000 0.000000 0.000000
1 1 1 1 1.000000 123.935482 24.222352 -0.776800 0.000000 0.000000 0.000000 0.000000
1 1 1 1 1.000000 123.938436 24.222334 -0.406000 0.000000 0.000000 0.000000 0.000000
1 1 1 1 1.000000 123.944345 24.222297 -6.479300 0.000000 0.000000 0.000000 0.000000
1 1 1 1 1.000000 123.947299 24.222279 -28.300000 0.000000 0.000000 0.000000 0.000000
1 1 1 1 1.000000 123.994566 24.221977 -28.873000 0.000000 0.000000 0.000000 0.000000
1 1 1 1 1.000000 123.997520 24.221958 -5.667900 0.000000 0.000000 0.000000 0.000000
1 1 1 1 1.000000 124.003429 24.221919 -0.470300 0.000000 0.000000 0.000000 0.000000
1 1 1 1 1.000000 124.015245 24.221841 -0.821800 0.000000 0.000000 0.000000 0.000000
1 1 1 1 1.000000 124.018199 24.221821 -0.875900 0.000000 0.000000 0.000000 0.000000
1 1 1 1 1.000000 124.021154 24.221801 -0.875900 0.000000 0.000000 0.000000 0.000000
1 1 1 1 1.000000 124.024108 24.221782 -0.032100 0.000000 0.000000 0.000000 0.000000
1 1 1 1 1.000000 124.030016 24.221742 -6.697900 0.000000 0.000000 0.000000 0.000000
1 1 1 1 1.000000 124.032970 24.221722 -7.142200 0.000000 0.000000 0.000000 0.000000
1 1 1 1 1.000000 124.035924 24.221702 -15.255000 0.000000 0.000000 0.000000 0.000000
1 1 1 1 1.000000 124.038878 24.221682 -28.300000 0.000000 0.000000 0.000000 0.000000
1 1 1 1 1.000000 123.905959 24.225240 -26.997000 0.000000 0.000000 0.000000 0.000000
1 1 1 1 1.000000 123.908913 24.225222 -21.059000 0.000000 0.000000 0.000000 0.000000
1 1 1 1 1.000000 123.911867 24.225205 -13.300000 0.000000 0.000000 0.000000 0.000000
1 1 1 1 1.000000 123.914822 24.225187 -4.378500 0.000000 0.000000 0.000000 0.000000
1 1 1 1 1.000000 123.917776 24.225169 -2.446000 0.000000 0.000000 0.000000 0.000000
1 1 1 1 1.000000 123.920730 24.225151 -1.669500 0.000000 0.000000 0.000000 0.000000
1 1 1 1 1.000000 123.923685 24.225133 -0.703000 0.000000 0.000000 0.000000 0.000000
1 1 1 1 1.000000 123.926639 24.225115 -0.703000 0.000000 0.000000 0.000000 0.000000
1 1 1 1 1.000000 123.929593 24.225097 -0.633100 0.000000 0.000000 0.000000 0.000000
1 1 1 1 1.000000 123.932547 24.225079 -1.316800 0.000000 0.000000 0.000000 0.000000
1 1 1 1 1.000000 123.935502 24.225061 -0.797100 0.000000 0.000000 0.000000 0.000000
1 1 1 1 1.000000 123.938456 24.225043 -1.233600 0.000000 0.000000 0.000000 0.000000
1 1 1 1 1.000000 123.947319 24.224988 -9.550000 0.000000 0.000000 0.000000 0.000000
1 1 1 1 1.000000 123.950273 24.224970 -25.787000 0.000000 0.000000 0.000000 0.000000
1 1 1 1 1.000000 123.953227 24.224951 -28.300000 0.000000 0.000000 0.000000 0.000000
1 1 1 1 1.000000 123.994587 24.224687 -23.300000 0.000000 0.000000 0.000000 0.000000
1 1 1 1 1.000000 124.000496 24.224648 -0.585700 0.000000 0.000000 0.000000 0.000000
1 1 1 1 1.000000 124.021175 24.224511 -1.117000 0.000000 0.000000 0.000000 0.000000
1 1 1 1 1.000000 124.024129 24.224491 -1.004600 0.000000 0.000000 0.000000 0.000000
1 1 1 1 1.000000 124.027084 24.224471 -0.848800 0.000000 0.000000 0.000000 0.000000
1 1 1 1 1.000000 124.030038 24.224451 -1.000000 0.000000 0.000000 0.000000 0.000000
1 1 1 1 1.000000 124.035946 24.224411 -5.375300 0.000000 0.000000 0.000000 0.000000
1 1 1 1 1.000000 124.038900 24.224391 -8.742000 0.000000 0.000000 0.000000 0.000000
1 1 1 1 1.000000 124.041854 24.224371 -21.199000 0.000000 0.000000 0.000000 0.000000
1 1 1 1 1.000000 123.911887 24.227914 -18.300000 0.000000 0.000000 0.000000 0.000000
1 1 1 1 1.000000 123.914841 24.227896 -13.300000 0.000000 0.000000 0.000000 0.000000
1 1 1 1 1.000000 123.917795 24.227878 -5.429100 0.000000 0.000000 0.000000 0.000000
1 1 1 1 1.000000 123.920750 24.227860 -2.860400 0.000000 0.000000 0.000000 0.000000
1 1 1 1 1.000000 123.923704 24.227843 -0.882700 0.000000 0.000000 0.000000 0.000000
1 1 1 1 1.000000 123.926658 24.227825 -1.028000 0.000000 0.000000 0.000000 0.000000
1 1 1 1 1.000000 123.929613 24.227807 -0.774300 0.000000 0.000000 0.000000 0.000000
1 1 1 1 1.000000 123.932567 24.227789 -0.563300 0.000000 0.000000 0.000000 0.000000
1 1 1 1 1.000000 123.950293 24.227679 -5.017900 0.000000 0.000000 0.000000 0.000000
1 1 1 1 1.000000 123.953248 24.227660 -8.754000 0.000000 0.000000 0.000000 0.000000
1 1 1 1 1.000000 123.956202 24.227642 -15.985000 0.000000 0.000000 0.000000 0.000000
1 1 1 1 1.000000 123.959156 24.227623 -25.800000 0.000000 0.000000 0.000000 0.000000
1 1 1 1 1.000000 123.994608 24.227396 -13.300000 0.000000 0.000000 0.000000 0.000000
1 1 1 1 1.000000 124.024151 24.227200 -1.190400 0.000000 0.000000 0.000000 0.000000
1 1 1 1 1.000000 124.027105 24.227180 -1.035100 0.000000 0.000000 0.000000 0.000000
1 1 1 1 1.000000 124.030060 24.227160 -0.382400 0.000000 0.000000 0.000000 0.000000
1 1 1 1 1.000000 124.033014 24.227140 -1.000000 0.000000 0.000000 0.000000 0.000000
1 1 1 1 1.000000 124.038922 24.227100 -5.375300 0.000000 0.000000 0.000000 0.000000
1 1 1 1 1.000000 124.041877 24.227080 -8.672000 0.000000 0.000000 0.000000 0.000000
1 1 1 1 1.000000 124.044831 24.227059 -28.300000 0.000000 0.000000 0.000000 0.000000
1 1 1 1 1.000000 123.911906 24.230623 -15.974000 0.000000 0.000000 0.000000 0.000000
1 1 1 1 1.000000 123.914860 24.230605 -19.562000 0.000000 0.000000 0.000000 0.000000
1 1 1 1 1.000000 123.917815 24.230588 -12.052000 0.000000 0.000000 0.000000 0.000000
1 1 1 1 1.000000 123.920769 24.230570 -8.800000 0.000000 0.000000 0.000000 0.000000
1 1 1 1 1.000000 123.923724 24.230552 -7.300000 0.000000 0.000000 0.000000 0.000000
1 1 1 1 1.000000 123.926678 24.230534 -5.076800 0.000000 0.000000 0.000000 0.000000
1 1 1 1 1.000000 123.929633 24.230516 -0.845500 0.000000 0.000000 0.000000 0.000000
1 1 1 1 1.000000 123.932587 24.230498 -0.703000 0.000000 0.000000 0.000000 0.000000
1 1 1 1 1.000000 123.959177 24.230333 -6.139400 0.000000 0.000000 0.000000 0.000000
1 1 1 1 1.000000 123.962131 24.230314 -23.300000 0.000000 0.000000 0.000000 0.000000
1 1 1 1 1.000000 123.994629 24.230105 -1.135600 0.000000 0.000000 0.000000 0.000000
1 1 1 1 1.000000 124.030081 24.229869 -1.135600 0.000000 0.000000 0.000000 0.000000
1 1 1 1 1.000000 124.033036 24.229849 -0.875900 0.000000 0.000000 0.000000 0.000000
1 1 1 1 1.000000 124.038944 24.229809 -3.490200 0.000000 0.000000 0.000000 0.000000
1 1 1 1 1.000000 124.041899 24.229789 -6.550000 0.000000 0.000000 0.000000 0.000000
1 1 1 1 1.000000 124.044853 24.229769 -13.300000 0.000000 0.000000 0.000000 0.000000
1 1 1 1 1.000000 124.047807 24.229748 -23.796000 0.000000 0.000000 0.000000 0.000000
1 1 1 1 1.000000 123.908971 24.233350 -18.300000 0.000000 0.000000 0.000000 0.000000
1 1 1 1 1.000000 123.911925 24.233332 -20.660000 0.000000 0.000000 0.000000 0.000000
1 1 1 1 1.000000 123.914880 24.233315 -18.050000 0.000000 0.000000 0.000000 0.000000
1 1 1 1 1.000000 123.917834 24.233297 -14.068000 0.000000 0.000000 0.000000 0.000000
1 1 1 1 1.000000 123.920789 24.233279 -12.300000 0.000000 0.000000 0.000000 0.000000
1 1 1 1 1.000000 123.923743 24.233261 -7.716700 0.000000 0.000000 0.000000 0.000000
1 1 1 1 1.000000 123.926698 24.233243 -0.703000 0.000000 0.000000 0.000000 0.000000
1 1 1 1 1.000000 123.929652 24.233225 -0.703000 0.000000 0.000000 0.000000 0.000000
1 1 1 1 1.000000 123.932607 24.233207 -0.703000 0.000000 0.000000 0.000000 0.000000
1 1 1 1 1.000000 123.935561 24.233189 -0.703000 0.000000 0.000000 0.000000 0.000000
1 1 1 1 1.000000 123.962151 24.233023 -5.847900 0.000000 0.000000 0.000000 0.000000
1 1 1 1 1.000000 123.991696 24.232833 -8.892000 0.000000 0.000000 0.000000 0.000000
1 1 1 1 1.000000 124.030103 24.232578 -1.253900 0.000000 0.000000 0.000000 0.000000
1 1 1 1 1.000000 124.033057 24.232558 -1.135600 0.000000 0.000000 0.000000 0.000000
1 1 1 1 1.000000 124.038966 24.232518 -3.778500 0.000000 0.000000 0.000000 0.000000
1 1 1 1 1.000000 124.041921 24.232498 -6.845700 0.000000 0.000000 0.000000 0.000000
1 1 1 1 1.000000 124.044875 24.232478 -8.188100 0.000000 0.000000 0.000000 0.000000
1 1 1 1 1.000000 124.047829 24.232457 -15.883000 0.000000 0.000000 0.000000 0.000000
1 1 1 1 1.000000 124.050784 24.232437 -27.950000 0.000000 0.000000 0.000000 0.000000
1 1 1 1 1.000000 123.908990 24.236059 -17.633000 0.000000 0.000000 0.000000 0.000000
1 1 1 1 1.000000 123.911944 24.236042 -20.165000 0.000000 0.000000 0.000000 0.000000
1 1 1 1 1.000000 123.914899 24.236024 -18.300000 0.000000 0.000000 0.000000 0.000000
1 1 1 1 1.000000 123.917854 24.236006 -17.800000 0.000000 0.000000 0.000000 0.000000
1 1 1 1 1.000000 123.920808 24.235988 -13.773000 0.000000 0.000000 0.000000 0.000000
1 1 1 1 1.000000 123.923763 24.235970 -8.507000 0.000000 0.000000 0.000000 0.000000
1 1 1 1 1.000000 123.926717 24.235952 -5.798000 0.000000 0.000000 0.000000 0.000000
1 1 1 1 1.000000 123.929672 24.235934 -4.711800 0.000000 0.000000 0.000000 0.000000
1 1 1 1 1.000000 123.932626 24.235916 -4.300000 0.000000 0.000000 0.000000 0.000000
1 1 1 1 1.000000 123.935581 24.235898 -4.300000 0.000000 0.000000 0.000000 0.000000
1 1 1 1 1.000000 123.938536 24.235880 -1.070000 0.000000 0.000000 0.000000 0.000000
1 1 1 1 1.000000 123.965126 24.235714 -23.300000 0.000000 0.000000 0.000000 0.000000
1 1 1 1 1.000000 123.988762 24.235562 -18.300000 0.000000 0.000000 0.000000 0.000000
1 1 1 1 1.000000 124.030125 24.235288 -1.190400 0.000000 0.000000 0.000000 0.000000
1 1 1 1 1.000000 124.033079 24.235268 -1.253900 0.000000 0.000000 0.000000 0.000000
1 1 1 1 1.000000 124.038988 24.235227 -1.914000 0.000000 0.000000 0.000000 0.000000
1 1 1 1 1.000000 124.041943 24.235207 -7.142200 0.000000 0.000000 0.000000 0.000000
1 1 1 1 1.000000 124.044897 24.235187 -12.300000 0.000000 0.000000 0.000000 0.000000
1 1 1 1 1.000000 124.047852 24.235167 -13.300000 0.000000 0.000000 0.000000 0.000000
1 1 1 1 1.000000 124.050806 24.235146 -22.744000 0.000000 0.000000 0.000000 0.000000
1 1 1 1 1.000000 123.897191 24.238839 -27.300000 0.000000 0.000000 0.000000 0.000000
1 1 1 1 1.000000 123.900145 24.238821 -26.138000 0.000000 0.000000 0.000000 0.000000
1 1 1 1 1.000000 123.903100 24.238804 -23.494000 0.000000 0.000000 0.000000 0.000000
1 1 1 1 1.000000 123.906055 24.238786 -23.122000 0.000000 0.000000 0.000000 0.000000
1 1 1 1 1.000000 123.909009 24.238768 -21.300000 0.000000 0.000000 0.000000 0.000000
1 1 1 1 1.000000 123.911964 24.238751 -20.300000 0.000000 0.000000 0.000000 0.000000
1 1 1 1 1.000000 123.914918 24.238733 -16.703000 0.000000 0.000000 0.000000 0.000000
1 1 1 1 1.000000 123.917873 24.238715 -13.300000 0.000000 0.000000 0.000000 0.000000
1 1 1 1 1.000000 123.920828 24.238697 -8.300000 0.000000 0.000000 0.000000 0.000000
1 1 1 1 1.000000 123.923782 24.238680 -9.050000 0.000000 0.000000 0.000000 0.000000
1 1 1 1 1.000000 123.926737 24.238662 -6.393800 0.000000 0.000000 0.000000 0.000000
1 1 1 1 1.000000 123.929692 24.238644 -5.530100 0.000000 0.000000 0.000000 0.000000
1 1 1 1 1.000000 123.932646 24.238625 -4.679700 0.000000 0.000000 0.000000 0.000000
1 1 1 1 1.000000 123.935601 24.238607 -4.300000 0.000000 0.000000 0.000000 0.000000
1 1 1 1 1.000000 123.938555 24.238589 -1.210500 0.000000 0.000000 0.000000 0.000000
1 1 1 1 1.000000 123.941510 24.238571 -1.070000 0.000000 0.000000 0.000000 0.000000
1 1 1 1 1.000000 123.965147 24.238423 -17.813000 0.000000 0.000000 0.000000 0.000000
1 1 1 1 1.000000 123.985829 24.238290 -18.300000 0.000000 0.000000 0.000000 0.000000
1 1 1 1 1.000000 123.988783 24.238271 -0.563900 0.000000 0.000000 0.000000 0.000000
1 1 1 1 1.000000 123.991738 24.238252 -0.973600 0.000000 0.000000 0.000000 0.000000
1 1 1 1 1.000000 124.033101 24.237977 -1.293200 0.000000 0.000000 0.000000 0.000000
1 1 1 1 1.000000 124.039010 24.237936 -0.089700 0.000000 0.000000 0.000000 0.000000
1 1 1 1 1.000000 124.041965 24.237916 -6.845700 0.000000 0.000000 0.000000 0.000000
1 1 1 1 1.000000 124.044919 24.237896 -15.971000 0.000000 0.000000 0.000000 0.000000
1 1 1 1 1.000000 124.047874 24.237876 -13.300000 0.000000 0.000000 0.000000 0.000000
1 1 1 1 1.000000 124.050828 24.237855 -20.800000 0.000000 0.000000 0.000000 0.000000
1 1 1 1 1.000000 123.861753 24.241753 -21.126000 0.000000 0.000000 0.000000 0.000000
1 1 1 1 1.000000 123.864708 24.241736 -9.300000 0.000000 0.000000 0.000000 0.000000
1 1 1 1 1.000000 123.867662 24.241719 -7.744400 0.000000 0.000000 0.000000 0.000000
1 1 1 1 1.000000 123.870617 24.241702 -13.485000 0.000000 0.000000 0.000000 0.000000
1 1 1 1 1.000000 123.873572 24.241685 -20.616000 0.000000 0.000000 0.000000 0.000000
1 1 1 1 1.000000 123.876527 24.241668 -26.619000 0.000000 0.000000 0.000000 0.000000
1 1 1 1 1.000000 123.894255 24.241565 -24.550000 0.000000 0.000000 0.000000 0.000000
1 1 1 1 1.000000 123.903119 24.241513 -28.883000 0.000000 0.000000 0.000000 0.000000
1 1 1 1 1.000000 123.906074 24.241495 -18.717000 0.000000 0.000000 0.000000 0.000000
1 1 1 1 1.000000 123.909028 24.241478 -24.300000 0.000000 0.000000 0.000000 0.000000
1 1 1 1 1.000000 123.911983 24.241460 -19.300000 0.000000 0.000000 0.000000 0.000000
1 1 1 1 1.000000 123.914938 24.241442 -14.774000 0.000000 0.000000 0.000000 0.000000
1 1 1 1 1.000000 123.917892 24.241425 -10.964000 0.000000 0.000000 0.000000 0.000000
1 1 1 1 1.000000 123.920847 24.241407 -4.076100 0.000000 0.000000 0.000000 0.000000
1 1 1 1 1.000000 123.923802 24.241389 -2.890700 0.000000 0.000000 0.000000 0.000000
1 1 1 1 1.000000 123.926757 24.241371 -1.712100 0.000000 0.000000 0.000000 0.000000
1 1 1 1 1.000000 123.929711 24.241353 -1.735200 0.000000 0.000000 0.000000 0.000000
1 1 1 1 1.000000 123.932666 24.241335 -0.845500 0.000000 0.000000 0.000000 0.000000
1 1 1 1 1.000000 123.935621 24.241317 -4.565400 0.000000 0.000000 0.000000 0.000000
1 1 1 1 1.000000 123.938575 24.241298 -4.954400 0.000000 0.000000 0.000000 0.000000
1 1 1 1 1.000000 123.941530 24.241280 -1.070000 0.000000 0.000000 0.000000 0.000000
1 1 1 1 1.000000 123.944485 24.241262 -1.070000 0.000000 0.000000 0.000000 0.000000
1 1 1 1 1.000000 123.956303 24.241188 -0.156100 0.000000 0.000000 0.000000 0.000000
1 1 1 1 1.000000 123.962213 24.241151 -4.093400 0.000000 0.000000 0.000000 0.000000
1 1 1 1 1.000000 123.965167 24.241132 -26.294000 0.000000 0.000000 0.000000 0.000000
1 1 1 1 1.000000 123.982895 24.241019 -26.053000 0.000000 0.000000 0.000000 0.000000
1 1 1 1 1.000000 123.985850 24.240999 -4.937900 0.000000 0.000000 0.000000 0.000000
1 1 1 1 1.000000 123.988804 24.240980 -0.563900 0.000000 0.000000 0.000000 0.000000
1 1 1 1 1.000000 124.033123 24.240686 -2.717800 0.000000 0.000000 0.000000 0.000000
1 1 1 1 1.000000 124.036078 24.240666 -0.323100 0.000000 0.000000 0.000000 0.000000
1 1 1 1 1.000000 124.041987 24.240625 -6.300000 0.000000 0.000000 0.000000 0.000000
1 1 1 1 1.000000 124.044941 24.240605 -19.300000 0.000000 0.000000 0.000000 0.000000
1 1 1 1 1.000000 124.047896 24.240585 -16.300000 0.000000 0.000000 0.000000 0.000000
1 1 1 1 1.000000 124.050850 24.240564 -25.309000 0.000000 0.000000 0.000000 0.000000
1 1 1 1 1.000000 123.858816 24.244479 -17.573000 0.000000 0.000000 0.000000 0.000000
1 1 1 1 1.000000 123.861771 24.244462 -4.700000 0.000000 0.000000 0.000000 0.000000
1 1 1 1 1.000000 123.867681 24.244429 -1.238000 0.000000 0.000000 0.000000 0.000000
1 1 1 1 1.000000 123.870636 24.244412 -0.300000 0.000000 0.000000 0.000000 0.000000
1 1 1 1 1.000000 123.873590 24.244395 -5.375300 0.000000 0.000000 0.000000 0.000000
1 1 1 1 1.000000 123.876545 24.244378 -19.863000 0.000000 0.000000 0.000000 0.000000
1 1 1 1 1.000000 123.879500 24.244361 -16.534000 0.000000 0.000000 0.000000 0.000000
1 1 1 1 1.000000 123.885409 24.244326 -22.675000 0.000000 0.000000 0.000000 0.000000
1 1 1 1 1.000000 123.888364 24.244309 -22.784000 0.000000 0.000000 0.000000 0.000000
1 1 1 1 1.000000 123.891319 24.244292 -8.300000 0.000000 0.000000 0.000000 0.000000
1 1 1 1 1.000000 123.894274 24.244275 -2.625400 0.000000 0.000000 0.000000 0.000000
1 1 1 1 1.000000 123.897229 24.244257 -1.751700 0.000000 0.000000 0.000000 0.000000
1 1 1 1 1.000000 123.900183 24.244240 -18.300000 0.000000 0.000000 0.000000 0.000000
1 1 1 1 1.000000 123.903138 24.244222 -24.271000 0.000000 0.000000 0.000000 0.000000
1 1 1 1 1.000000 123.906093 24.244205 -18.301000 0.000000 0.000000 0.000000 0.000000
1 1 1 1 1.000000 123.909048 24.244187 -18.300000 0.000000 0.000000 0.000000 0.000000
1 1 1 1 1.000000 123.912002 24.244169 -15.800000 0.000000 0.000000 0.000000 0.000000
1 1 1 1 1.000000 123.914957 24.244152 -14.627000 0.000000 0.000000 0.000000 0.000000
1 1 1 1 1.000000 123.917912 24.244134 -13.282000 0.000000 0.000000 0.000000 0.000000
1 1 1 1 1.000000 123.920867 24.244116 -9.467000 0.000000 0.000000 0.000000 0.000000
1 1 1 1 1.000000 123.923821 24.244098 -3.911700 0.000000 0.000000 0.000000 0.000000
1 1 1 1 1.000000 123.926776 24.244080 -0.442000 0.000000 0.000000 0.000000 0.000000
1 1 1 1 1.000000 123.929731 24.244062 -0.703000 0.000000 0.000000 0.000000 0.000000
1 1 1 1 1.000000 123.932686 24.244044 -0.774300 0.000000 0.000000 0.000000 0.000000
1 1 1 1 1.000000 123.935640 24.244026 -0.845500 0.000000 0.000000 0.000000 0.000000
1 1 1 1 1.000000 123.938595 24.244008 -4.363600 0.000000 0.000000 0.000000 0.000000
1 1 1 1 1.000000 123.941550 24.243989 -0.888800 0.000000 0.000000 0.000000 0.000000
1 1 1 1 1.000000 123.944505 24.243971 -1.070000 0.000000 0.000000 0.000000 0.000000
1 1 1 1 1.000000 123.947459 24.243953 -1.001100 0.000000 0.000000 0.000000 0.000000
1 1 1 1 1.000000 123.950414 24.243934 -0.323100 0.000000 0.000000 0.000000 0.000000
1 1 1 1 1.000000 123.953369 24.243916 -0.932200 0.000000 0.000000 0.000000 0.000000
1 1 1 1 1.000000 123.956323 24.243897 -8.300000 0.000000 0.000000 0.000000 0.000000
1 1 1 1 1.000000 123.959278 24.243879 -16.240000 0.000000 0.000000 0.000000 0.000000
1 1 1 1 1.000000 123.982916 24.243728 -23.300000 0.000000 0.000000 0.000000 0.000000
1 1 1 1 1.000000 123.985870 24.243709 -3.778500 0.000000 0.000000 0.000000 0.000000
1 1 1 1 1.000000 123.988825 24.243689 -1.004600 0.000000 0.000000 0.000000 0.000000
1 1 1 1 1.000000 124.030190 24.243415 -1.317500 0.000000 0.000000 0.000000 0.000000
1 1 1 1 1.000000 124.033145 24.243395 -4.910600 0.000000 0.000000 0.000000 0.000000
1 1 1 1 1.000000 124.036100 24.243375 -0.518400 0.000000 0.000000 0.000000 0.000000
1 1 1 1 1.000000 124.039054 24.243355 -0.382400 0.000000 0.000000 0.000000 0.000000
1 1 1 1 1.000000 124.042009 24.243335 -7.300000 0.000000 0.000000 0.000000 0.000000
1 1 1 1 1.000000 124.044963 24.243314 -20.300000 0.000000 0.000000 0.000000 0.000000
1 1 1 1 1.000000 124.047918 24.243294 -21.537000 0.000000 0.000000 0.000000 0.000000
1 1 1 1 1.000000 123.855880 24.247205 -22.050000 0.000000 0.000000 0.000000 0.000000
1 1 1 1 1.000000 123.858835 24.247188 -2.510500 0.000000 0.000000 0.000000 0.000000
1 1 1 1 1.000000 123.879519 24.247070 -0.323100 0.000000 0.000000 0.000000 0.000000
1 1 1 1 1.000000 123.888383 24.247018 -1.060400 0.000000 0.000000 0.000000 0.000000
1 1 1 1 1.000000 123.900202 24.246949 -13.300000 0.000000 0.000000 0.000000 0.000000
1 1 1 1 1.000000 123.903157 24.246931 -16.231000 0.000000 0.000000 0.000000 0.000000
1 1 1 1 1.000000 123.906112 24.246914 -13.300000 0.000000 0.000000 0.000000 0.000000
1 1 1 1 1.000000 123.909067 24.246896 -15.243000 0.000000 0.000000 0.000000 0.000000
1 1 1 1 1.000000 123.912022 24.246879 -14.300000 0.000000 0.000000 0.000000 0.000000
1 1 1 1 1.000000 123.914977 24.246861 -11.725000 0.000000 0.000000 0.000000 0.000000
1 1 1 1 1.000000 123.917931 24.246843 -12.300000 0.000000 0.000000 0.000000 0.000000
1 1 1 1 1.000000 123.920886 24.246825 -11.550000 0.000000 0.000000 0.000000 0.000000
1 1 1 1 1.000000 123.923841 24.246807 -8.300000 0.000000 0.000000 0.000000 0.000000
1 1 1 1 1.000000 123.926796 24.246789 -0.918200 0.000000 0.000000 0.000000 0.000000
1 1 1 1 1.000000 123.929751 24.246771 -4.901200 0.000000 0.000000 0.000000 0.000000
1 1 1 1 1.000000 123.932705 24.246753 -4.425000 0.000000 0.000000 0.000000 0.000000
1 1 1 1 1.000000 123.935660 24.246735 -0.845500 0.000000 0.000000 0.000000 0.000000
1 1 1 1 1.000000 123.938615 24.246717 -0.703000 0.000000 0.000000 0.000000 0.000000
1 1 1 1 1.000000 123.941570 24.246699 -4.758500 0.000000 0.000000 0.000000 0.000000
1 1 1 1 1.000000 123.944525 24.246680 -5.350200 0.000000 0.000000 0.000000 0.000000
1 1 1 1 1.000000 123.947479 24.246662 -5.327800 0.000000 0.000000 0.000000 0.000000
1 1 1 1 1.000000 123.950434 24.246643 -5.605800 0.000000 0.000000 0.000000 0.000000
1 1 1 1 1.000000 123.953389 24.246625 -9.300000 0.000000 0.000000 0.000000 0.000000
1 1 1 1 1.000000 123.956344 24.246606 -22.614000 0.000000 0.000000 0.000000 0.000000
1 1 1 1 1.000000 123.982937 24.246437 -25.268000 0.000000 0.000000 0.000000 0.000000
1 1 1 1 1.000000 123.985891 24.246418 -5.521600 0.000000 0.000000 0.000000 0.000000
1 1 1 1 1.000000 123.988846 24.246399 -1.126300 0.000000 0.000000 0.000000 0.000000
1 1 1 1 1.000000 124.030212 24.246124 -3.600300 0.000000 0.000000 0.000000 0.000000
1 1 1 1 1.000000 124.033167 24.246104 -2.300000 0.000000 0.000000 0.000000 0.000000
1 1 1 1 1.000000 124.036122 24.246084 -0.032100 0.000000 0.000000 0.000000 0.000000
1 1 1 1 1.000000 124.039076 24.246064 -1.004600 0.000000 0.000000 0.000000 0.000000
1 1 1 1 1.000000 124.042031 24.246044 -17.865000 0.000000 0.000000 0.000000 0.000000
1 1 1 1 1.000000 124.044986 24.246023 -20.663000 0.000000 0.000000 0.000000 0.000000
1 1 1 1 1.000000 124.047940 24.246003 -24.300000 0.000000 0.000000 0.000000 0.000000
1 1 1 1 1.000000 124.050895 24.245983 -28.300000 0.000000 0.000000 0.000000 0.000000
1 1 1 1 1.000000 124.095215 24.245670 -27.050000 0.000000 0.000000 0.000000 0.000000
1 1 1 1 1.000000 124.098169 24.245649 -22.050000 0.000000 0.000000 0.000000 0.000000
1 1 1 1 1.000000 124.101124 24.245628 -21.847000 0.000000 0.000000 0.000000 0.000000
1 1 1 1 1.000000 124.104079 24.245606 -15.800000 0.000000 0.000000 0.000000 0.000000
1 1 1 1 1.000000 124.107033 24.245585 -9.567000 0.000000 0.000000 0.000000 0.000000
1 1 1 1 1.000000 124.109988 24.245563 -11.022000 0.000000 0.000000 0.000000 0.000000
1 1 1 1 1.000000 124.112942 24.245542 -18.300000 0.000000 0.000000 0.000000 0.000000
1 1 1 1 1.000000 124.115897 24.245520 -23.300000 0.000000 0.000000 0.000000 0.000000
1 1 1 1 1.000000 123.855898 24.249914 -5.966700 0.000000 0.000000 0.000000 0.000000
1 1 1 1 1.000000 123.870672 24.249830 -0.200000 0.000000 0.000000 0.000000 0.000000
1 1 1 1 1.000000 123.873627 24.249813 -0.200000 0.000000 0.000000 0.000000 0.000000
1 1 1 1 1.000000 123.897267 24.249676 -0.470000 0.000000 0.000000 0.000000 0.000000
1 1 1 1 1.000000 123.900222 24.249658 -11.800000 0.000000 0.000000 0.000000 0.000000
1 1 1 1 1.000000 123.903176 24.249641 -13.330000 0.000000 0.000000 0.000000 0.000000
1 1 1 1 1.000000 123.906131 24.249623 -13.300000 0.000000 0.000000 0.000000 0.000000
1 1 1 1 1.000000 123.909086 24.249606 -13.300000 0.000000 0.000000 0.000000 0.000000
1 1 1 1 1.000000 123.912041 24.249588 -13.050000 0.000000 0.000000 0.000000 0.000000
1 1 1 1 1.000000 123.914996 24.249570 -11.113000 0.000000 0.000000 0.000000 0.000000
1 1 1 1 1.000000 123.917951 24.249552 -12.106000 0.000000 0.000000 0.000000 0.000000
1 1 1 1 1.000000 123.920906 24.249534 -11.422000 0.000000 0.000000 0.000000 0.000000
1 1 1 1 1.000000 123.923861 24.249517 -9.453000 0.000000 0.000000 0.000000 0.000000
1 1 1 1 1.000000 123.926815 24.249499 -4.093400 0.000000 0.000000 0.000000 0.000000
1 1 1 1 1.000000 123.929770 24.249481 -7.300000 0.000000 0.000000 0.000000 0.000000
1 1 1 1 1.000000 123.932725 24.249462 -10.056000 0.000000 0.000000 0.000000 0.000000
1 1 1 1 1.000000 123.935680 24.249444 -6.081300 0.000000 0.000000 0.000000 0.000000
1 1 1 1 1.000000 123.938635 24.249426 -5.300000 0.000000 0.000000 0.000000 0.000000
1 1 1 1 1.000000 123.941590 24.249408 -4.300000 0.000000 0.000000 0.000000 0.000000
1 1 1 1 1.000000 123.944545 24.249390 -5.300000 0.000000 0.000000 0.000000 0.000000
1 1 1 1 1.000000 123.947499 24.249371 -6.680500 0.000000 0.000000 0.000000 0.000000
1 1 1 1 1.000000 123.950454 24.249353 -9.300000 0.000000 0.000000 0.000000 0.000000
1 1 1 1 1.000000 123.953409 24.249334 -18.300000 0.000000 0.000000 0.000000 0.000000
1 1 1 1 1.000000 123.956364 24.249316 -28.300000 0.000000 0.000000 0.000000 0.000000
1 1 1 1 1.000000 123.982957 24.249146 -27.300000 0.000000 0.000000 0.000000 0.000000
1 1 1 1 1.000000 123.985912 24.249127 -8.818000 0.000000 0.000000 0.000000 0.000000
1 1 1 1 1.000000 123.988867 24.249108 -1.269000 0.000000 0.000000 0.000000 0.000000
1 1 1 1 1.000000 123.991822 24.249089 -1.135600 0.000000 0.000000 0.000000 0.000000
1 1 1 1 1.000000 124.027279 24.248853 -4.300000 0.000000 0.000000 0.000000 0.000000
1 1 1 1 1.000000 124.030234 24.248833 -3.046800 0.000000 0.000000 0.000000 0.000000
1 1 1 1 1.000000 124.033189 24.248813 -0.544300 0.000000 0.000000 0.000000 0.000000
1 1 1 1 1.000000 124.036144 24.248793 -0.323100 0.000000 0.000000 0.000000 0.000000
1 1 1 1 1.000000 124.039098 24.248773 -5.669300 0.000000 0.000000 0.000000 0.000000
1 1 1 1 1.000000 124.042053 24.248753 -19.800000 0.000000 0.000000 0.000000 0.000000
1 1 1 1 1.000000 124.045008 24.248733 -22.550000 0.000000 0.000000 0.000000 0.000000
1 1 1 1 1.000000 124.092283 24.248401 -19.311000 0.000000 0.000000 0.000000 0.000000
1 1 1 1 1.000000 124.095238 24.248379 -6.710900 0.000000 0.000000 0.000000 0.000000
1 1 1 1 1.000000 124.098193 24.248358 -4.519400 0.000000 0.000000 0.000000 0.000000
1 1 1 1 1.000000 124.101147 24.248337 -2.188200 0.000000 0.000000 0.000000 0.000000
1 1 1 1 1.000000 124.104102 24.248315 -1.896900 0.000000 0.000000 0.000000 0.000000
1 1 1 1 1.000000 124.118875 24.248207 -6.027600 0.000000 0.000000 0.000000 0.000000
1 1 1 1 1.000000 124.121830 24.248186 -11.151000 0.000000 0.000000 0.000000 0.000000
1 1 1 1 1.000000 124.124785 24.248164 -22.615000 0.000000 0.000000 0.000000 0.000000
1 1 1 1 1.000000 123.852961 24.252640 -10.747000 0.000000 0.000000 0.000000 0.000000
1 1 1 1 1.000000 123.867736 24.252556 -0.200000 0.000000 0.000000 0.000000 0.000000
1 1 1 1 1.000000 123.870691 24.252539 -0.200000 0.000000 0.000000 0.000000 0.000000
1 1 1 1 1.000000 123.873646 24.252523 -0.200000 0.000000 0.000000 0.000000 0.000000
1 1 1 1 1.000000 123.876601 24.252506 -0.426400 0.000000 0.000000 0.000000 0.000000
1 1 1 1 1.000000 123.879556 24.252489 -0.486600 0.000000 0.000000 0.000000 0.000000
1 1 1 1 1.000000 123.882511 24.252471 -0.394200 0.000000 0.000000 0.000000 0.000000
1 1 1 1 1.000000 123.885466 24.252454 -0.625100 0.000000 0.000000 0.000000 0.000000
1 1 1 1 1.000000 123.888421 24.252437 -0.664400 0.000000 0.000000 0.000000 0.000000
1 1 1 1 1.000000 123.891376 24.252420 -0.579600 0.000000 0.000000 0.000000 0.000000
1 1 1 1 1.000000 123.900241 24.252367 -13.457000 0.000000 0.000000 0.000000 0.000000
1 1 1 1 1.000000 123.903196 24.252350 -18.300000 0.000000 0.000000 0.000000 0.000000
1 1 1 1 1.000000 123.906150 24.252332 -8.300000 0.000000 0.000000 0.000000 0.000000
1 1 1 1 1.000000 123.909105 24.252315 -8.300000 0.000000 0.000000 0.000000 0.000000
1 1 1 1 1.000000 123.912060 24.252297 -7.300000 0.000000 0.000000 0.000000 0.000000
1 1 1 1 1.000000 123.915015 24.252279 -11.300000 0.000000 0.000000 0.000000 0.000000
1 1 1 1 1.000000 123.917970 24.252262 -12.300000 0.000000 0.000000 0.000000 0.000000
1 1 1 1 1.000000 123.920925 24.252244 -12.300000 0.000000 0.000000 0.000000 0.000000
1 1 1 1 1.000000 123.923880 24.252226 -9.340000 0.000000 0.000000 0.000000 0.000000
1 1 1 1 1.000000 123.926835 24.252208 -8.300000 0.000000 0.000000 0.000000 0.000000
1 1 1 1 1.000000 123.929790 24.252190 -8.300000 0.000000 0.000000 0.000000 0.000000
1 1 1 1 1.000000 123.932745 24.252172 -11.300000 0.000000 0.000000 0.000000 0.000000
1 1 1 1 1.000000 123.935700 24.252154 -7.300000 0.000000 0.000000 0.000000 0.000000
1 1 1 1 1.000000 123.938655 24.252135 -6.673800 0.000000 0.000000 0.000000 0.000000
1 1 1 1 1.000000 123.941610 24.252117 -6.599400 0.000000 0.000000 0.000000 0.000000
1 1 1 1 1.000000 123.944565 24.252099 -7.318300 0.000000 0.000000 0.000000 0.000000
1 1 1 1 1.000000 123.947520 24.252080 -8.031600 0.000000 0.000000 0.000000 0.000000
1 1 1 1 1.000000 123.950474 24.252062 -13.300000 0.000000 0.000000 0.000000 0.000000
1 1 1 1 1.000000 123.953429 24.252043 -19.597000 0.000000 0.000000 0.000000 0.000000
1 1 1 1 1.000000 123.956384 24.252025 -28.129000 0.000000 0.000000 0.000000 0.000000
1 1 1 1 1.000000 123.971159 24.251931 -23.300000 0.000000 0.000000 0.000000 0.000000
1 1 1 1 1.000000 123.982978 24.251855 -27.425000 0.000000 0.000000 0.000000 0.000000
1 1 1 1 1.000000 123.985933 24.251836 -17.148000 0.000000 0.000000 0.000000 0.000000
1 1 1 1 1.000000 123.988888 24.251817 -2.628500 0.000000 0.000000 0.000000 0.000000
1 1 1 1 1.000000 123.991843 24.251798 -1.004600 0.000000 0.000000 0.000000 0.000000
1 1 1 1 1.000000 123.994798 24.251779 -0.942600 0.000000 0.000000 0.000000 0.000000
1 1 1 1 1.000000 124.024346 24.251582 -0.141600 0.000000 0.000000 0.000000 0.000000
1 1 1 1 1.000000 124.027301 24.251563 -1.664900 0.000000 0.000000 0.000000 0.000000
1 1 1 1 1.000000 124.030256 24.251543 -1.909400 0.000000 0.000000 0.000000 0.000000
1 1 1 1 1.000000 124.033211 24.251523 -1.163000 0.000000 0.000000 0.000000 0.000000
1 1 1 1 1.000000 124.036165 24.251502 -3.615100 0.000000 0.000000 0.000000 0.000000
1 1 1 1 1.000000 124.039120 24.251482 -18.633000 0.000000 0.000000 0.000000 0.000000
1 1 1 1 1.000000 124.042075 24.251462 -22.445000 0.000000 0.000000 0.000000 0.000000
1 1 1 1 1.000000 124.045030 24.251442 -18.300000 0.000000 0.000000 0.000000 0.000000
1 1 1 1 1.000000 124.089352 24.251131 -23.300000 0.000000 0.000000 0.000000 0.000000
1 1 1 1 1.000000 124.092306 24.251110 -8.300000 0.000000 0.000000 0.000000 0.000000
1 1 1 1 1.000000 124.095261 24.251088 -2.485300 0.000000 0.000000 0.000000 0.000000
1 1 1 1 1.000000 124.124808 24.250873 -6.328600 0.000000 0.000000 0.000000 0.000000
1 1 1 1 1.000000 124.127763 24.250851 -12.086000 0.000000 0.000000 0.000000 0.000000
1 1 1 1 1.000000 124.130718 24.250829 -25.851000 0.000000 0.000000 0.000000 0.000000
1 1 1 1 1.000000 123.847069 24.255382 -12.343000 0.000000 0.000000 0.000000 0.000000
1 1 1 1 1.000000 123.850024 24.255366 -3.300000 0.000000 0.000000 0.000000 0.000000
1 1 1 1 1.000000 123.855934 24.255333 -0.000000 0.000000 0.000000 0.000000 0.000000
1 1 1 1 1.000000 123.858889 24.255316 -0.000000 0.000000 0.000000 0.000000 0.000000
1 1 1 1 1.000000 123.864799 24.255282 -0.000000 0.000000 0.000000 0.000000 0.000000
1 1 1 1 1.000000 123.867754 24.255266 -0.000000 0.000000 0.000000 0.000000 0.000000
1 1 1 1 1.000000 123.879574 24.255198 -0.118000 0.000000 0.000000 0.000000 0.000000
1 1 1 1 1.000000 123.882529 24.255181 -0.356700 0.000000 0.000000 0.000000 0.000000
1 1 1 1 1.000000 123.885485 24.255163 -0.749500 0.000000 0.000000 0.000000 0.000000
1 1 1 1 1.000000 123.888440 24.255146 -0.875900 0.000000 0.000000 0.000000 0.000000
1 1 1 1 1.000000 123.891395 24.255129 -1.135600 0.000000 0.000000 0.000000 0.000000
1 1 1 1 1.000000 123.894350 24.255112 -1.771500 0.000000 0.000000 0.000000 0.000000
1 1 1 1 1.000000 123.897305 24.255094 -1.629000 0.000000 0.000000 0.000000 0.000000
1 1 1 1 1.000000 123.900260 24.255077 -13.300000 0.000000 0.000000 0.000000 0.000000
1 1 1 1 1.000000 123.903215 24.255059 -13.300000 0.000000 0.000000 0.000000 0.000000
1 1 1 1 1.000000 123.906170 24.255042 -5.256400 0.000000 0.000000 0.000000 0.000000
1 1 1 1 1.000000 123.909125 24.255024 -4.241000 0.000000 0.000000 0.000000 0.000000
1 1 1 1 1.000000 123.912080 24.255006 -3.798500 0.000000 0.000000 0.000000 0.000000
1 1 1 1 1.000000 123.915035 24.254989 -8.550000 0.000000 0.000000 0.000000 0.000000
1 1 1 1 1.000000 123.917990 24.254971 -11.338000 0.000000 0.000000 0.000000 0.000000
1 1 1 1 1.000000 123.920945 24.254953 -11.404000 0.000000 0.000000 0.000000 0.000000
1 1 1 1 1.000000 123.923900 24.254935 -10.675000 0.000000 0.000000 0.000000 0.000000
1 1 1 1 1.000000 123.926855 24.254917 -8.300000 0.000000 0.000000 0.000000 0.000000
1 1 1 1 1.000000 123.929810 24.254899 -9.300000 0.000000 0.000000 0.000000 0.000000
1 1 1 1 1.000000 123.932765 24.254881 -13.300000 0.000000 0.000000 0.000000 0.000000
1 1 1 1 1.000000 123.935720 24.254863 -6.300000 0.000000 0.000000 0.000000 0.000000
1 1 1 1 1.000000 123.938675 24.254845 -7.300000 0.000000 0.000000 0.000000 0.000000
1 1 1 1 1.000000 123.941630 24.254826 -5.775300 0.000000 0.000000 0.000000 0.000000
1 1 1 1 1.000000 123.944585 24.254808 -5.300000 0.000000 0.000000 0.000000 0.000000
1 1 1 1 1.000000 123.947540 24.254790 -8.300000 0.000000 0.000000 0.000000 0.000000
1 1 1 1 1.000000 123.950495 24.254771 -18.300000 0.000000 0.000000 0.000000 0.000000
1 1 1 1 1.000000 123.953450 24.254753 -23.360000 0.000000 0.000000 0.000000 0.000000
1 1 1 1 1.000000 123.968224 24.254659 -6.932600 0.000000 0.000000 0.000000 0.000000
1 1 1 1 1.000000 123.971179 24.254640 -19.567000 0.000000 0.000000 0.000000 0.000000
1 1 1 1 1.000000 123.985954 24.254545 -20.708000 0.000000 0.000000 0.000000 0.000000
1 1 1 1 1.000000 123.988909 24.254526 -4.800000 0.000000 0.000000 0.000000 0.000000
1 1 1 1 1.000000 123.991864 24.254507 -1.070000 0.000000 0.000000 0.000000 0.000000
1 1 1 1 1.000000 123.994819 24.254488 -0.875900 0.000000 0.000000 0.000000 0.000000
1 1 1 1 1.000000 123.997774 24.254468 -0.323100 0.000000 0.000000 0.000000 0.000000
1 1 1 1 1.000000 124.000729 24.254449 -1.128000 0.000000 0.000000 0.000000 0.000000
1 1 1 1 1.000000 124.003684 24.254430 -0.089700 0.000000 0.000000 0.000000 0.000000
1 1 1 1 1.000000 124.024368 24.254292 -0.904100 0.000000 0.000000 0.000000 0.000000
1 1 1 1 1.000000 124.027323 24.254272 -8.300000 0.000000 0.000000 0.000000 0.000000
1 1 1 1 1.000000 124.030278 24.254252 -18.300000 0.000000 0.000000 0.000000 0.000000
1 1 1 1 1.000000 124.033233 24.254232 -22.300000 0.000000 0.000000 0.000000 0.000000
1 1 1 1 1.000000 124.036187 24.254212 -24.473000 0.000000 0.000000 0.000000 0.000000
1 1 1 1 1.000000 124.039142 24.254191 -27.196000 0.000000 0.000000 0.000000 0.000000
1 1 1 1 1.000000 124.089375 24.253840 -13.300000 0.000000 0.000000 0.000000 0.000000
1 1 1 1 1.000000 124.092330 24.253819 -2.917800 0.000000 0.000000 0.000000 0.000000
1 1 1 1 1.000000 124.098239 24.253776 -0.471600 0.000000 0.000000 0.000000 0.000000
1 1 1 1 1.000000 124.101194 24.253755 -0.506500 0.000000 0.000000 0.000000 0.000000
1 1 1 1 1.000000 124.104149 24.253733 -0.438000 0.000000 0.000000 0.000000 0.000000
1 1 1 1 1.000000 124.107104 24.253712 -0.438000 0.000000 0.000000 0.000000 0.000000
1 1 1 1 1.000000 124.110058 24.253690 -0.738400 0.000000 0.000000 0.000000 0.000000
1 1 1 1 1.000000 124.113013 24.253669 -4.526400 0.000000 0.000000 0.000000 0.000000
1 1 1 1 1.000000 124.115968 24.253647 -0.701300 0.000000 0.000000 0.000000 0.000000
1 1 1 1 1.000000 124.118923 24.253625 -1.617800 0.000000 0.000000 0.000000 0.000000
1 1 1 1 1.000000 124.121878 24.253604 -1.914000 0.000000 0.000000 0.000000 0.000000
1 1 1 1 1.000000 124.127787 24.253560 -4.226500 0.000000 0.000000 0.000000 0.000000
1 1 1 1 1.000000 124.130742 24.253538 -12.188000 0.000000 0.000000 0.000000 0.000000
1 1 1 1 1.000000 124.133697 24.253516 -19.707000 0.000000 0.000000 0.000000 0.000000
1 1 1 1 1.000000 124.136651 24.253494 -25.758000 0.000000 0.000000 0.000000 0.000000
1 1 1 1 1.000000 123.838221 24.258141 -26.317000 0.000000 0.000000 0.000000 0.000000
1 1 1 1 1.000000 123.841177 24.258124 -13.876000 0.000000 0.000000 0.000000 0.000000
1 1 1 1 1.000000 123.844132 24.258108 -9.664000 0.000000 0.000000 0.000000 0.000000
1 1 1 1 1.000000 123.847087 24.258092 -0.300000 0.000000 0.000000 0.000000 0.000000
1 1 1 1 1.000000 123.852997 24.258059 -0.000000 0.000000 0.000000 0.000000 0.000000
1 1 1 1 1.000000 123.855952 24.258042 -0.000000 0.000000 0.000000 0.000000 0.000000
1 1 1 1 1.000000 123.858907 24.258025 -0.000000 0.000000 0.000000 0.000000 0.000000
1 1 1 1 1.000000 123.882548 24.257890 -0.189400 0.000000 0.000000 0.000000 0.000000
1 1 1 1 1.000000 123.885503 24.257873 -0.356700 0.000000 0.000000 0.000000 0.000000
1 1 1 1 1.000000 123.888458 24.257856 -0.664000 0.000000 0.000000 0.000000 0.000000
1 1 1 1 1.000000 123.891413 24.257838 -1.190400 0.000000 0.000000 0.000000 0.000000
1 1 1 1 1.000000 123.894369 24.257821 -1.202300 0.000000 0.000000 0.000000 0.000000
1 1 1 1 1.000000 123.897324 24.257803 -1.474400 0.000000 0.000000 0.000000 0.000000
1 1 1 1 1.000000 123.900279 24.257786 -1.032500 0.000000 0.000000 0.000000 0.000000
1 1 1 1 1.000000 123.903234 24.257768 -9.133000 0.000000 0.000000 0.000000 0.000000
1 1 1 1 1.000000 123.906189 24.257751 -0.875900 0.000000 0.000000 0.000000 0.000000
1 1 1 1 1.000000 123.912099 24.257716 -5.823000 0.000000 0.000000 0.000000 0.000000
1 1 1 1 1.000000 123.915054 24.257698 -5.633500 0.000000 0.000000 0.000000 0.000000
1 1 1 1 1.000000 123.918009 24.257680 -8.300000 0.000000 0.000000 0.000000 0.000000
1 1 1 1 1.000000 123.920964 24.257662 -10.520000 0.000000 0.000000 0.000000 0.000000
1 1 1 1 1.000000 123.923919 24.257644 -10.085000 0.000000 0.000000 0.000000 0.000000
1 1 1 1 1.000000 123.926874 24.257626 -7.572900 0.000000 0.000000 0.000000 0.000000
1 1 1 1 1.000000 123.929829 24.257608 -8.446000 0.000000 0.000000 0.000000 0.000000
1 1 1 1 1.000000 123.932784 24.257590 -13.300000 0.000000 0.000000 0.000000 0.000000
1 1 1 1 1.000000 123.935740 24.257572 -19.967000 0.000000 0.000000 0.000000 0.000000
1 1 1 1 1.000000 123.938695 24.257554 -13.300000 0.000000 0.000000 0.000000 0.000000
1 1 1 1 1.000000 123.941650 24.257536 -6.258400 0.000000 0.000000 0.000000 0.000000
1 1 1 1 1.000000 123.944605 24.257517 -4.270500 0.000000 0.000000 0.000000 0.000000
1 1 1 1 1.000000 123.947560 24.257499 -19.550000 0.000000 0.000000 0.000000 0.000000
1 1 1 1 1.000000 123.950515 24.257480 -12.300000 0.000000 0.000000 0.000000 0.000000
1 1 1 1 1.000000 123.953470 24.257462 -13.730000 0.000000 0.000000 0.000000 0.000000
1 1 1 1 1.000000 123.956425 24.257443 -26.807000 0.000000 0.000000 0.000000 0.000000
1 1 1 1 1.000000 123.965290 24.257387 -20.576000 0.000000 0.000000 0.000000 0.000000
1 1 1 1 1.000000 123.968245 24.257369 -7.130600 0.000000 0.000000 0.000000 0.000000
1 1 1 1 1.000000 123.971200 24.257350 -22.300000 0.000000 0.000000 0.000000 0.000000
1 1 1 1 1.000000 123.983020 24.257274 -27.946000 0.000000 0.000000 0.000000 0.000000
1 1 1 1 1.000000 123.985975 24.257255 -18.300000 0.000000 0.000000 0.000000 0.000000
1 1 1 1 1.000000 123.988930 24.257235 -10.300000 0.000000 0.000000 0.000000 0.000000
1 1 1 1 1.000000 123.991885 24.257216 -1.210500 0.000000 0.000000 0.000000 0.000000
1 1 1 1 1.000000 123.994840 24.257197 -0.932200 0.000000 0.000000 0.000000 0.000000
1 1 1 1 1.000000 123.997795 24.257178 -0.749500 0.000000 0.000000 0.000000 0.000000
1 1 1 1 1.000000 124.000750 24.257158 -0.749500 0.000000 0.000000 0.000000 0.000000
1 1 1 1 1.000000 124.003705 24.257139 -0.382400 0.000000 0.000000 0.000000 0.000000
1 1 1 1 1.000000 124.006660 24.257119 -0.147200 0.000000 0.000000 0.000000 0.000000
1 1 1 1 1.000000 124.009615 24.257100 -0.280000 0.000000 0.000000 0.000000 0.000000
1 1 1 1 1.000000 124.012570 24.257080 -5.044800 0.000000 0.000000 0.000000 0.000000
1 1 1 1 1.000000 124.021435 24.257021 -0.797100 0.000000 0.000000 0.000000 0.000000
1 1 1 1 1.000000 124.024390 24.257001 -5.996100 0.000000 0.000000 0.000000 0.000000
1 1 1 1 1.000000 124.027345 24.256981 -18.252000 0.000000 0.000000 0.000000 0.000000
1 1 1 1 1.000000 124.030299 24.256961 -23.797000 0.000000 0.000000 0.000000 0.000000
1 1 1 1 1.000000 124.033254 24.256941 -26.300000 0.000000 0.000000 0.000000 0.000000
1 1 1 1 1.000000 124.036209 24.256921 -28.300000 0.000000 0.000000 0.000000 0.000000
1 1 1 1 1.000000 124.089398 24.256549 -7.517200 0.000000 0.000000 0.000000 0.000000
1 1 1 1 1.000000 124.092353 24.256528 -2.342300 0.000000 0.000000 0.000000 0.000000
1 1 1 1 1.000000 124.098262 24.256485 -0.348800 0.000000 0.000000 0.000000 0.000000
1 1 1 1 1.000000 124.101217 24.256464 -0.426300 0.000000 0.000000 0.000000 0.000000
1 1 1 1 1.000000 124.104172 24.256443 -4.300000 0.000000 0.000000 0.000000 0.000000
1 1 1 1 1.000000 124.107127 24.256421 -0.563300 0.000000 0.000000 0.000000 0.000000
1 1 1 1 1.000000 124.110082 24.256399 -0.563300 0.000000 0.000000 0.000000 0.000000
1 1 1 1 1.000000 124.113037 24.256378 -5.223400 0.000000 0.000000 0.000000 0.000000
1 1 1 1 1.000000 124.115992 24.256356 -0.797100 0.000000 0.000000 0.000000 0.000000
1 1 1 1 1.000000 124.118946 24.256335 -0.664400 0.000000 0.000000 0.000000 0.000000
1 1 1 1 1.000000 124.121901 24.256313 -0.834500 0.000000 0.000000 0.000000 0.000000
1 1 1 1 1.000000 124.124856 24.256291 -1.171900 0.000000 0.000000 0.000000 0.000000
1 1 1 1 1.000000 124.130766 24.256247 -5.107200 0.000000 0.000000 0.000000 0.000000
1 1 1 1 1.000000 124.133721 24.256225 -9.569000 0.000000 0.000000 0.000000 0.000000
1 1 1 1 1.000000 124.136675 24.256203 -18.300000 0.000000 0.000000 0.000000 0.000000
1 1 1 1 1.000000 124.139630 24.256181 -18.300000 0.000000 0.000000 0.000000 0.000000
1 1 1 1 1.000000 124.142585 24.256159 -18.300000 0.000000 0.000000 0.000000 0.000000
1 1 1 1 1.000000 124.145540 24.256137 -28.300000 0.000000 0.000000 0.000000 0.000000
1 1 1 1 1.000000 123.835284 24.260866 -27.445000 0.000000 0.000000 0.000000 0.000000
1 1 1 1 1.000000 123.838239 24.260850 -9.300000 0.000000 0.000000 0.000000 0.000000
1 1 1 1 1.000000 123.844150 24.260817 -1.493900 0.000000 0.000000 0.000000 0.000000
1 1 1 1 1.000000 123.850060 24.260784 -0.000000 0.000000 0.000000 0.000000 0.000000
1 1 1 1 1.000000 123.853015 24.260768 -0.000000 0.000000 0.000000 0.000000 0.000000
1 1 1 1 1.000000 123.885522 24.260582 -0.178500 0.000000 0.000000 0.000000 0.000000
1 1 1 1 1.000000 123.888477 24.260565 -0.470300 0.000000 0.000000 0.000000 0.000000
1 1 1 1 1.000000 123.891432 24.260547 -1.269000 0.000000 0.000000 0.000000 0.000000
1 1 1 1 1.000000 123.894388 24.260530 -0.785600 0.000000 0.000000 0.000000 0.000000
1 1 1 1 1.000000 123.897343 24.260513 -0.749500 0.000000 0.000000 0.000000 0.000000
1 1 1 1 1.000000 123.900298 24.260495 -1.070100 0.000000 0.000000 0.000000 0.000000
1 1 1 1 1.000000 123.903253 24.260478 -0.776800 0.000000 0.000000 0.000000 0.000000
1 1 1 1 1.000000 123.915073 24.260407 -10.727000 0.000000 0.000000 0.000000 0.000000
1 1 1 1 1.000000 123.918029 24.260389 -5.667900 0.000000 0.000000 0.000000 0.000000
1 1 1 1 1.000000 123.920984 24.260371 -6.550100 0.000000 0.000000 0.000000 0.000000
1 1 1 1 1.000000 123.923939 24.260353 -6.246000 0.000000 0.000000 0.000000 0.000000
1 1 1 1 1.000000 123.926894 24.260336 -11.297000 0.000000 0.000000 0.000000 0.000000
1 1 1 1 1.000000 123.929849 24.260317 -7.050000 0.000000 0.000000 0.000000 0.000000
1 1 1 1 1.000000 123.932804 24.260299 -13.300000 0.000000 0.000000 0.000000 0.000000
1 1 1 1 1.000000 123.935759 24.260281 -13.584000 0.000000 0.000000 0.000000 0.000000
1 1 1 1 1.000000 123.938714 24.260263 -18.748000 0.000000 0.000000 0.000000 0.000000
1 1 1 1 1.000000 123.941670 24.260245 -11.050000 0.000000 0.000000 0.000000 0.000000
1 1 1 1 1.000000 123.944625 24.260226 -11.544000 0.000000 0.000000 0.000000 0.000000
1 1 1 1 1.000000 123.947580 24.260208 -16.425000 0.000000 0.000000 0.000000 0.000000
1 1 1 1 1.000000 123.950535 24.260190 -13.930000 0.000000 0.000000 0.000000 0.000000
1 1 1 1 1.000000 123.953490 24.260171 -7.439600 0.000000 0.000000 0.000000 0.000000
1 1 1 1 1.000000 123.956445 24.260153 -22.729000 0.000000 0.000000 0.000000 0.000000
1 1 1 1 1.000000 123.959400 24.260134 -23.233000 0.000000 0.000000 0.000000 0.000000
1 1 1 1 1.000000 123.962355 24.260115 -24.113000 0.000000 0.000000 0.000000 0.000000
1 1 1 1 1.000000 123.965310 24.260097 -21.199000 0.000000 0.000000 0.000000 0.000000
1 1 1 1 1.000000 123.968265 24.260078 -21.170000 0.000000 0.000000 0.000000 0.000000
1 1 1 1 1.000000 123.971220 24.260059 -19.300000 0.000000 0.000000 0.000000 0.000000
1 1 1 1 1.000000 123.974176 24.260040 -21.395000 0.000000 0.000000 0.000000 0.000000
1 1 1 1 1.000000 123.980086 24.260002 -25.166000 0.000000 0.000000 0.000000 0.000000
1 1 1 1 1.000000 123.985996 24.259964 -13.915000 0.000000 0.000000 0.000000 0.000000
1 1 1 1 1.000000 123.988951 24.259945 -11.300000 0.000000 0.000000 0.000000 0.000000
1 1 1 1 1.000000 123.991906 24.259925 -5.466500 0.000000 0.000000 0.000000 0.000000
1 1 1 1 1.000000 123.994861 24.259906 -1.070000 0.000000 0.000000 0.000000 0.000000
1 1 1 1 1.000000 123.997816 24.259887 -0.932200 0.000000 0.000000 0.000000 0.000000
1 1 1 1 1.000000 124.000771 24.259867 -0.730700 0.000000 0.000000 0.000000 0.000000
1 1 1 1 1.000000 124.003726 24.259848 -0.664400 0.000000 0.000000 0.000000 0.000000
1 1 1 1 1.000000 124.006681 24.259828 -0.797100 0.000000 0.000000 0.000000 0.000000
1 1 1 1 1.000000 124.009636 24.259809 -0.534100 0.000000 0.000000 0.000000 0.000000
1 1 1 1 1.000000 124.012591 24.259789 -6.303700 0.000000 0.000000 0.000000 0.000000
1 1 1 1 1.000000 124.015546 24.259769 -0.034200 0.000000 0.000000 0.000000 0.000000
1 1 1 1 1.000000 124.021456 24.259730 -5.375300 0.000000 0.000000 0.000000 0.000000
1 1 1 1 1.000000 124.024411 24.259710 -19.300000 0.000000 0.000000 0.000000 0.000000
1 1 1 1 1.000000 124.027366 24.259690 -21.229000 0.000000 0.000000 0.000000 0.000000
1 1 1 1 1.000000 124.030321 24.259670 -19.300000 0.000000 0.000000 0.000000 0.000000
1 1 1 1 1.000000 124.033276 24.259650 -19.642000 0.000000 0.000000 0.000000 0.000000
1 1 1 1 1.000000 124.089421 24.259258 -17.050000 0.000000 0.000000 0.000000 0.000000
1 1 1 1 1.000000 124.092376 24.259237 -4.982300 0.000000 0.000000 0.000000 0.000000
1 1 1 1 1.000000 124.095331 24.259216 -0.797100 0.000000 0.000000 0.000000 0.000000
1 1 1 1 1.000000 124.098286 24.259194 -0.664400 0.000000 0.000000 0.000000 0.000000
1 1 1 1 1.000000 124.101241 24.259173 -0.480200 0.000000 0.000000 0.000000 0.000000
1 1 1 1 1.000000 124.104196 24.259152 -0.493500 0.000000 0.000000 0.000000 0.000000
1 1 1 1 1.000000 124.107151 24.259130 -0.563300 0.000000 0.000000 0.000000 0.000000
1 1 1 1 1.000000 124.110105 24.259109 -4.947200 0.000000 0.000000 0.000000 0.000000
1 1 1 1 1.000000 124.113060 24.259087 -6.300000 0.000000 0.000000 0.000000 0.000000
1 1 1 1 1.000000 124.116015 24.259065 -6.010100 0.000000 0.000000 0.000000 0.000000
1 1 1 1 1.000000 124.118970 24.259044 -4.449500 0.000000 0.000000 0.000000 0.000000
1 1 1 1 1.000000 124.121925 24.259022 -0.534100 0.000000 0.000000 0.000000 0.000000
1 1 1 1 1.000000 124.124880 24.259000 -1.060400 0.000000 0.000000 0.000000 0.000000
1 1 1 1 1.000000 124.130790 24.258956 -3.346400 0.000000 0.000000 0.000000 0.000000
1 1 1 1 1.000000 124.133745 24.258934 -11.837000 0.000000 0.000000 0.000000 0.000000
1 1 1 1 1.000000 124.136700 24.258912 -6.550100 0.000000 0.000000 0.000000 0.000000
1 1 1 1 1.000000 124.139654 24.258890 -5.375300 0.000000 0.000000 0.000000 0.000000
1 1 1 1 1.000000 124.142609 24.258868 -5.667900 0.000000 0.000000 0.000000 0.000000
1 1 1 1 1.000000 124.145564 24.258846 -6.994000 0.000000 0.000000 0.000000 0.000000
1 1 1 1 1.000000 124.148519 24.258823 -18.300000 0.000000 0.000000 0.000000 0.000000
1 1 1 1 1.000000 123.820525 24.263656 -28.697000 0.000000 0.000000 0.000000 0.000000
1 1 1 1 1.000000 123.823481 24.263640 -22.883000 0.000000 0.000000 0.000000 0.000000
1 1 1 1 1.000000 123.826436 24.263624 -28.623000 0.000000 0.000000 0.000000 0.000000
1 1 1 1 1.000000 123.829391 24.263608 -15.300000 0.000000 0.000000 0.000000 0.000000
1 1 1 1 1.000000 123.832346 24.263592 -20.696000 0.000000 0.000000 0.000000 0.000000
1 1 1 1 1.000000 123.835302 24.263576 -22.332000 0.000000 0.000000 0.000000 0.000000
1 1 1 1 1.000000 123.838257 24.263559 -0.941800 0.000000 0.000000 0.000000 0.000000
1 1 1 1 1.000000 123.847123 24.263510 -0.000000 0.000000 0.000000 0.000000 0.000000
1 1 1 1 1.000000 123.850078 24.263494 -0.000000 0.000000 0.000000 0.000000 0.000000
1 1 1 1 1.000000 123.888496 24.263274 -0.718300 0.000000 0.000000 0.000000 0.000000
1 1 1 1 1.000000 123.891451 24.263257 -1.035100 0.000000 0.000000 0.000000 0.000000
1 1 1 1 1.000000 123.894406 24.263239 -0.382400 0.000000 0.000000 0.000000 0.000000
1 1 1 1 1.000000 123.897362 24.263222 -1.135600 0.000000 0.000000 0.000000 0.000000
1 1 1 1 1.000000 123.900317 24.263205 -0.664000 0.000000 0.000000 0.000000 0.000000
1 1 1 1 1.000000 123.903272 24.263187 -0.749500 0.000000 0.000000 0.000000 0.000000
1 1 1 1 1.000000 123.915093 24.263116 -0.641800 0.000000 0.000000 0.000000 0.000000
1 1 1 1 1.000000 123.918048 24.263099 -4.356900 0.000000 0.000000 0.000000 0.000000
[...]
1 1 1 1 1.000000 124.349767 24.566001 -20.330000 0.000000 0.000000 0.000000 0.000000
1 1 1 1 1.000000 124.275748 24.569355 -26.300000 0.000000 0.000000 0.000000 0.000000
1 1 1 1 1.000000 124.278710 24.569330 -16.741000 0.000000 0.000000 0.000000 0.000000
1 1 1 1 1.000000 124.281672 24.569305 -3.640900 0.000000 0.000000 0.000000 0.000000
1 1 1 1 1.000000 124.296482 24.569178 -0.000000 0.000000 0.000000 0.000000 0.000000
1 1 1 1 1.000000 124.334987 24.568842 -0.000000 0.000000 0.000000 0.000000 0.000000
1 1 1 1 1.000000 124.337949 24.568816 -0.000000 0.000000 0.000000 0.000000 0.000000
1 1 1 1 1.000000 124.340911 24.568789 -0.000000 0.000000 0.000000 0.000000 0.000000
1 1 1 1 1.000000 124.346834 24.568736 -0.466700 0.000000 0.000000 0.000000 0.000000
1 1 1 1 1.000000 124.349796 24.568710 -11.333000 0.000000 0.000000 0.000000 0.000000
1 1 1 1 1.000000 124.352758 24.568683 -23.279000 0.000000 0.000000 0.000000 0.000000
1 1 1 1 1.000000 124.278738 24.572039 -14.550000 0.000000 0.000000 0.000000 0.000000
1 1 1 1 1.000000 124.284662 24.571988 -0.550000 0.000000 0.000000 0.000000 0.000000
1 1 1 1 1.000000 124.287624 24.571963 -6.094100 0.000000 0.000000 0.000000 0.000000
1 1 1 1 1.000000 124.290586 24.571938 -2.570800 0.000000 0.000000 0.000000 0.000000
1 1 1 1 1.000000 124.335016 24.571551 -0.000000 0.000000 0.000000 0.000000 0.000000
1 1 1 1 1.000000 124.337978 24.571524 -0.000000 0.000000 0.000000 0.000000 0.000000
1 1 1 1 1.000000 124.340940 24.571498 -0.000000 0.000000 0.000000 0.000000 0.000000
1 1 1 1 1.000000 124.349825 24.571419 -4.487500 0.000000 0.000000 0.000000 0.000000
1 1 1 1 1.000000 124.352787 24.571392 -19.568000 0.000000 0.000000 0.000000 0.000000
1 1 1 1 1.000000 124.278765 24.574748 -27.300000 0.000000 0.000000 0.000000 0.000000
1 1 1 1 1.000000 124.281727 24.574722 -8.114800 0.000000 0.000000 0.000000 0.000000
1 1 1 1 1.000000 124.284689 24.574697 -9.900000 0.000000 0.000000 0.000000 0.000000
1 1 1 1 1.000000 124.287651 24.574672 -17.586000 0.000000 0.000000 0.000000 0.000000
1 1 1 1 1.000000 124.290614 24.574647 -7.489200 0.000000 0.000000 0.000000 0.000000
1 1 1 1 1.000000 124.293576 24.574621 -6.094100 0.000000 0.000000 0.000000 0.000000
1 1 1 1 1.000000 124.296538 24.574596 -2.466700 0.000000 0.000000 0.000000 0.000000
1 1 1 1 1.000000 124.338006 24.574233 -0.000000 0.000000 0.000000 0.000000 0.000000
1 1 1 1 1.000000 124.340968 24.574207 -0.000000 0.000000 0.000000 0.000000 0.000000
1 1 1 1 1.000000 124.349854 24.574127 -1.300000 0.000000 0.000000 0.000000 0.000000
1 1 1 1 1.000000 124.352816 24.574101 -11.615000 0.000000 0.000000 0.000000 0.000000
1 1 1 1 1.000000 124.355778 24.574074 -26.091000 0.000000 0.000000 0.000000 0.000000
1 1 1 1 1.000000 124.284717 24.577406 -5.373200 0.000000 0.000000 0.000000 0.000000
1 1 1 1 1.000000 124.287679 24.577381 -3.394300 0.000000 0.000000 0.000000 0.000000
1 1 1 1 1.000000 124.290641 24.577355 -4.940600 0.000000 0.000000 0.000000 0.000000
1 1 1 1 1.000000 124.293603 24.577330 -9.133000 0.000000 0.000000 0.000000 0.000000
1 1 1 1 1.000000 124.296566 24.577305 -3.675000 0.000000 0.000000 0.000000 0.000000
1 1 1 1 1.000000 124.338035 24.576942 -0.000000 0.000000 0.000000 0.000000 0.000000
1 1 1 1 1.000000 124.340997 24.576915 -0.000000 0.000000 0.000000 0.000000 0.000000
1 1 1 1 1.000000 124.343959 24.576889 -0.000000 0.000000 0.000000 0.000000 0.000000
1 1 1 1 1.000000 124.352845 24.576810 -6.274400 0.000000 0.000000 0.000000 0.000000
1 1 1 1 1.000000 124.355807 24.576783 -22.633000 0.000000 0.000000 0.000000 0.000000
1 1 1 1 1.000000 124.284745 24.580115 -24.050000 0.000000 0.000000 0.000000 0.000000
1 1 1 1 1.000000 124.287707 24.580090 -3.700000 0.000000 0.000000 0.000000 0.000000
1 1 1 1 1.000000 124.293631 24.580039 -7.845500 0.000000 0.000000 0.000000 0.000000
1 1 1 1 1.000000 124.296593 24.580013 -5.600000 0.000000 0.000000 0.000000 0.000000
1 1 1 1 1.000000 124.299556 24.579988 -0.125000 0.000000 0.000000 0.000000 0.000000
1 1 1 1 1.000000 124.338064 24.579651 -0.000000 0.000000 0.000000 0.000000 0.000000
1 1 1 1 1.000000 124.341026 24.579624 -0.000000 0.000000 0.000000 0.000000 0.000000
1 1 1 1 1.000000 124.343988 24.579598 -0.000000 0.000000 0.000000 0.000000 0.000000
1 1 1 1 1.000000 124.346950 24.579571 -0.000000 0.000000 0.000000 0.000000 0.000000
1 1 1 1 1.000000 124.352875 24.579518 -1.667300 0.000000 0.000000 0.000000 0.000000
1 1 1 1 1.000000 124.355837 24.579492 -18.186000 0.000000 0.000000 0.000000 0.000000
1 1 1 1 1.000000 124.287735 24.582798 -18.472000 0.000000 0.000000 0.000000 0.000000
1 1 1 1 1.000000 124.290697 24.582773 -4.821700 0.000000 0.000000 0.000000 0.000000
1 1 1 1 1.000000 124.293659 24.582748 -6.953800 0.000000 0.000000 0.000000 0.000000
1 1 1 1 1.000000 124.296621 24.582722 -2.915400 0.000000 0.000000 0.000000 0.000000
1 1 1 1 1.000000 124.338093 24.582359 -0.000000 0.000000 0.000000 0.000000 0.000000
1 1 1 1 1.000000 124.341055 24.582333 -0.000000 0.000000 0.000000 0.000000 0.000000
1 1 1 1 1.000000 124.344017 24.582307 -0.000000 0.000000 0.000000 0.000000 0.000000
1 1 1 1 1.000000 124.346979 24.582280 -0.000000 0.000000 0.000000 0.000000 0.000000
1 1 1 1 1.000000 124.355866 24.582200 -14.144000 0.000000 0.000000 0.000000 0.000000
1 1 1 1 1.000000 124.358828 24.582174 -23.681000 0.000000 0.000000 0.000000 0.000000
1 1 1 1 1.000000 124.290725 24.585482 -18.817000 0.000000 0.000000 0.000000 0.000000
1 1 1 1 1.000000 124.293687 24.585456 -0.948600 0.000000 0.000000 0.000000 0.000000
1 1 1 1 1.000000 124.341084 24.585042 -0.000000 0.000000 0.000000 0.000000 0.000000
1 1 1 1 1.000000 124.344046 24.585015 -0.000000 0.000000 0.000000 0.000000 0.000000
1 1 1 1 1.000000 124.347008 24.584989 -0.000000 0.000000 0.000000 0.000000 0.000000
1 1 1 1 1.000000 124.355895 24.584909 -11.617000 0.000000 0.000000 0.000000 0.000000
1 1 1 1 1.000000 124.358857 24.584882 -18.383000 0.000000 0.000000 0.000000 0.000000
1 1 1 1 1.000000 124.290752 24.588191 -26.633000 0.000000 0.000000 0.000000 0.000000
1 1 1 1 1.000000 124.293715 24.588165 -3.522200 0.000000 0.000000 0.000000 0.000000
1 1 1 1 1.000000 124.296677 24.588140 -0.404500 0.000000 0.000000 0.000000 0.000000
1 1 1 1 1.000000 124.305564 24.588063 -0.244400 0.000000 0.000000 0.000000 0.000000
1 1 1 1 1.000000 124.344075 24.587724 -0.000000 0.000000 0.000000 0.000000 0.000000
1 1 1 1 1.000000 124.347037 24.587698 -0.000000 0.000000 0.000000 0.000000 0.000000
1 1 1 1 1.000000 124.355924 24.587618 -9.570000 0.000000 0.000000 0.000000 0.000000
1 1 1 1 1.000000 124.358886 24.587591 -19.670000 0.000000 0.000000 0.000000 0.000000
1 1 1 1 1.000000 124.293743 24.590874 -20.567000 0.000000 0.000000 0.000000 0.000000
1 1 1 1 1.000000 124.296705 24.590848 -3.734200 0.000000 0.000000 0.000000 0.000000
1 1 1 1 1.000000 124.302630 24.590797 -0.276700 0.000000 0.000000 0.000000 0.000000
1 1 1 1 1.000000 124.305592 24.590772 -0.966700 0.000000 0.000000 0.000000 0.000000
1 1 1 1 1.000000 124.344104 24.590433 -0.000000 0.000000 0.000000 0.000000 0.000000
1 1 1 1 1.000000 124.347066 24.590406 -0.000000 0.000000 0.000000 0.000000 0.000000
1 1 1 1 1.000000 124.355953 24.590326 -8.925000 0.000000 0.000000 0.000000 0.000000
1 1 1 1 1.000000 124.358916 24.590300 -21.454000 0.000000 0.000000 0.000000 0.000000
1 1 1 1 1.000000 124.296733 24.593557 -12.556000 0.000000 0.000000 0.000000 0.000000
1 1 1 1 1.000000 124.302658 24.593506 -1.363800 0.000000 0.000000 0.000000 0.000000
1 1 1 1 1.000000 124.305621 24.593480 -5.992300 0.000000 0.000000 0.000000 0.000000
1 1 1 1 1.000000 124.338208 24.593194 -0.000000 0.000000 0.000000 0.000000 0.000000
1 1 1 1 1.000000 124.341170 24.593168 -0.000000 0.000000 0.000000 0.000000 0.000000
1 1 1 1 1.000000 124.344133 24.593141 -0.000000 0.000000 0.000000 0.000000 0.000000
1 1 1 1 1.000000 124.355983 24.593035 -7.027300 0.000000 0.000000 0.000000 0.000000
1 1 1 1 1.000000 124.358945 24.593008 -26.300000 0.000000 0.000000 0.000000 0.000000
1 1 1 1 1.000000 124.299723 24.596240 -5.360600 0.000000 0.000000 0.000000 0.000000
1 1 1 1 1.000000 124.305649 24.596189 -6.160500 0.000000 0.000000 0.000000 0.000000
1 1 1 1 1.000000 124.338237 24.595903 -0.000000 0.000000 0.000000 0.000000 0.000000
1 1 1 1 1.000000 124.341199 24.595877 -0.000000 0.000000 0.000000 0.000000 0.000000
1 1 1 1 1.000000 124.356012 24.595744 -10.550000 0.000000 0.000000 0.000000 0.000000
1 1 1 1 1.000000 124.299751 24.598949 -20.740000 0.000000 0.000000 0.000000 0.000000
1 1 1 1 1.000000 124.302714 24.598924 -1.441000 0.000000 0.000000 0.000000 0.000000
1 1 1 1 1.000000 124.338265 24.598612 -0.000000 0.000000 0.000000 0.000000 0.000000
1 1 1 1 1.000000 124.341228 24.598585 -0.000000 0.000000 0.000000 0.000000 0.000000
1 1 1 1 1.000000 124.356041 24.598453 -8.405000 0.000000 0.000000 0.000000 0.000000
1 1 1 1 1.000000 124.302742 24.601632 -7.128600 0.000000 0.000000 0.000000 0.000000
1 1 1 1 1.000000 124.341257 24.601294 -0.000000 0.000000 0.000000 0.000000 0.000000
1 1 1 1 1.000000 124.344220 24.601268 -0.000000 0.000000 0.000000 0.000000 0.000000
1 1 1 1 1.000000 124.356070 24.601161 -17.189000 0.000000 0.000000 0.000000 0.000000
1 1 1 1 1.000000 124.302770 24.604341 -20.164000 0.000000 0.000000 0.000000 0.000000
1 1 1 1 1.000000 124.305733 24.604315 -2.273700 0.000000 0.000000 0.000000 0.000000
1 1 1 1 1.000000 124.341286 24.604003 -0.000000 0.000000 0.000000 0.000000 0.000000
1 1 1 1 1.000000 124.344248 24.603976 -0.000000 0.000000 0.000000 0.000000 0.000000
1 1 1 1 1.000000 124.353137 24.603897 -2.352600 0.000000 0.000000 0.000000 0.000000
1 1 1 1 1.000000 124.356099 24.603870 -25.592000 0.000000 0.000000 0.000000 0.000000
1 1 1 1 1.000000 124.305761 24.607024 -6.953800 0.000000 0.000000 0.000000 0.000000
1 1 1 1 1.000000 124.329464 24.606817 -0.000000 0.000000 0.000000 0.000000 0.000000
1 1 1 1 1.000000 124.332426 24.606790 -0.000000 0.000000 0.000000 0.000000 0.000000
1 1 1 1 1.000000 124.335389 24.606764 -0.000000 0.000000 0.000000 0.000000 0.000000
1 1 1 1 1.000000 124.338352 24.606738 -0.000000 0.000000 0.000000 0.000000 0.000000
1 1 1 1 1.000000 124.341315 24.606711 -0.000000 0.000000 0.000000 0.000000 0.000000
1 1 1 1 1.000000 124.350203 24.606632 -0.000000 0.000000 0.000000 0.000000 0.000000
1 1 1 1 1.000000 124.353166 24.606605 -13.050000 0.000000 0.000000 0.000000 0.000000
1 1 1 1 1.000000 124.305789 24.609733 -18.467000 0.000000 0.000000 0.000000 0.000000
1 1 1 1 1.000000 124.308752 24.609707 -1.060900 0.000000 0.000000 0.000000 0.000000
1 1 1 1 1.000000 124.323566 24.609578 -0.228600 0.000000 0.000000 0.000000 0.000000
1 1 1 1 1.000000 124.329492 24.609525 -0.000000 0.000000 0.000000 0.000000 0.000000
1 1 1 1 1.000000 124.332455 24.609499 -0.000000 0.000000 0.000000 0.000000 0.000000
1 1 1 1 1.000000 124.335418 24.609473 -0.000000 0.000000 0.000000 0.000000 0.000000
1 1 1 1 1.000000 124.338381 24.609447 -0.000000 0.000000 0.000000 0.000000 0.000000
1 1 1 1 1.000000 124.350232 24.609341 -14.021000 0.000000 0.000000 0.000000 0.000000
1 1 1 1 1.000000 124.308780 24.612416 -8.391000 0.000000 0.000000 0.000000 0.000000
1 1 1 1 1.000000 124.320632 24.612312 -0.162100 0.000000 0.000000 0.000000 0.000000
1 1 1 1 1.000000 124.323595 24.612286 -1.525400 0.000000 0.000000 0.000000 0.000000
1 1 1 1 1.000000 124.326558 24.612260 -0.253100 0.000000 0.000000 0.000000 0.000000
1 1 1 1 1.000000 124.347298 24.612076 -2.633300 0.000000 0.000000 0.000000 0.000000
1 1 1 1 1.000000 124.350261 24.612049 -18.657000 0.000000 0.000000 0.000000 0.000000
1 1 1 1 1.000000 124.308808 24.615125 -23.387000 0.000000 0.000000 0.000000 0.000000
1 1 1 1 1.000000 124.311771 24.615099 -7.594100 0.000000 0.000000 0.000000 0.000000
1 1 1 1 1.000000 124.320660 24.615021 -3.396200 0.000000 0.000000 0.000000 0.000000
1 1 1 1 1.000000 124.323623 24.614995 -1.320600 0.000000 0.000000 0.000000 0.000000
1 1 1 1 1.000000 124.326586 24.614969 -0.517400 0.000000 0.000000 0.000000 0.000000
1 1 1 1 1.000000 124.341401 24.614838 -0.440000 0.000000 0.000000 0.000000 0.000000
1 1 1 1 1.000000 124.344364 24.614811 -9.500000 0.000000 0.000000 0.000000 0.000000
1 1 1 1 1.000000 124.347327 24.614785 -22.123000 0.000000 0.000000 0.000000 0.000000
1 1 1 1 1.000000 124.311800 24.617808 -20.800000 0.000000 0.000000 0.000000 0.000000
1 1 1 1 1.000000 124.314763 24.617782 -2.540000 0.000000 0.000000 0.000000 0.000000
1 1 1 1 1.000000 124.320689 24.617730 -5.707400 0.000000 0.000000 0.000000 0.000000
1 1 1 1 1.000000 124.323652 24.617704 -4.269200 0.000000 0.000000 0.000000 0.000000
1 1 1 1 1.000000 124.332541 24.617625 -3.119700 0.000000 0.000000 0.000000 0.000000
1 1 1 1 1.000000 124.335504 24.617599 -3.247400 0.000000 0.000000 0.000000 0.000000
1 1 1 1 1.000000 124.338467 24.617573 -7.888200 0.000000 0.000000 0.000000 0.000000
1 1 1 1 1.000000 124.341430 24.617546 -15.900000 0.000000 0.000000 0.000000 0.000000
1 1 1 1 1.000000 124.317754 24.620465 -11.027000 0.000000 0.000000 0.000000 0.000000
1 1 1 1 1.000000 124.320717 24.620439 -13.472000 0.000000 0.000000 0.000000 0.000000
1 1 1 1 1.000000 124.323681 24.620413 -16.405000 0.000000 0.000000 0.000000 0.000000
1 1 1 1 1.000000 124.326644 24.620387 -8.488000 0.000000 0.000000 0.000000 0.000000
1 1 1 1 1.000000 124.329607 24.620360 -12.514000 0.000000 0.000000 0.000000 0.000000
1 1 1 1 1.000000 124.332570 24.620334 -14.657000 0.000000 0.000000 0.000000 0.000000
1 1 1 1 1.000000 124.335533 24.620308 -21.514000 0.000000 0.000000 0.000000 0.000000
1 1 1 1 1.000000 124.338496 24.620282 -28.800000 0.000000 0.000000 0.000000 0.000000
1 1 1 1 1.000000 124.323709 24.623121 -28.623000 0.000000 0.000000 0.000000 0.000000
1 1 1 1 1.000000 124.326672 24.623095 -23.754000 0.000000 0.000000 0.000000 0.000000
1 1 1 1 1.000000 124.329635 24.623069 -26.800000 0.000000 0.000000 0.000000 0.000000
1 1 1 1 1.000000 124.332599 24.623043 -28.300000 0.000000 0.000000 0.000000 0.000000

!      1  0  1  10   0.00  120.0  150.0   15.000    0.00     0.01     0.0  0.000


!      1  0  1  10   0.00  120.0  150.0   15.000    0.00     0.01     0.0  0.000

 
!
!  GLOSSARY:
!  =========
!
!  This input file provides the initial locations of the float trajectories
!  to compute.
!
!------------------------------------------------------------------------------
! Control Switches.
!------------------------------------------------------------------------------
!
! Lfloats   Switch to control the computation of floats trajectories within
!             nested and/or multiple connected grids. Ngrids values are
!             expected. By default this switch is set to TRUE in "mod_scalars"
!             for all grids when the CPP option FLOATS is activated. The
!             USER can control which grid to process by turning on/off this
!             switch.
!
! Fprint    Switch to control the printing of floats positions to standard
!             output file. This switch can be used to turn of the printing
!             of information whe thousands of floats are released.  This
!             information is still in output floats NetCDF file.
!
! FRREC     Flag to indicate re-start from a previous solution.  Use
!             FRREC=0 for new solutions. In a re-start solution, FRREC
!             is the time index in the floats NetCDF file assigned for
!             initialization.  If FRREC is negative (say FRREC=-1), the
!             floats will re-start from the most recent time record.
!             That is, the initialization record is assigned internally.
!
!------------------------------------------------------------------------------
! Biological behavior.
!------------------------------------------------------------------------------
!
! FBIONAM   If applicable, input script file name containing biological floats
!              behavior model parameters.
!
!------------------------------------------------------------------------------
! Number of floats.
!------------------------------------------------------------------------------
!
!  NFLOATS   Number of floats to release in each nested grid.  Provide
!              the exact number of floats.  These values are used to
!              dynamically allocate the arrays in FLOATS array structure.
!
!------------------------------------------------------------------------------
! Initial float location KEYWORDS.  The model variable name is not used as
! keyword in some parameters.  However, it namce is provided in brackets.
!------------------------------------------------------------------------------
!
!  G         Nested grid number [ng].
!
!  C         Initial horizontal location coordinate type [Fcoor]:
!
!              Fcoor = 0,  rho grid units
!                             0.5 =< Fx0 =< Lm(ng)+0.5,
!                             0.5 =< Fy0 =< Mm(ng)+0.5
!
!              Fcoor = 1,  Fx0 is longitude (west values are negative).
!                          Fy0 is latitude (south values are negative).
!
!  T         Float trajectory type [Ftype]:
!
!              Ftype = 1,  3D Lagrangian floats.
!                          (flt_Lagran)
!
!              Ftype = 2,  Isobaric floats, p=g*(z+zeta)=constant.
!                          (flt_Isobar)
!
!              Ftype = 3,  Geopotential floats, constant depth.
!                          (flt_Geopot)
!
!  N         Number of floats [Fcount] to be released at the (Fx0,Fy0,Fz0)
!              location.  It must be equal or greater than one. If Fcount
!              is greater than one, a cluster distribution of floats
!              centered at (Fx0,Fy0,Fz0) is activated.
!
!              NOTE:  The total number of floats trajectories to compute
!              ====   must add to NFLOATS.
!
!  Ft0       Time (days) of float release after model initialization (real).
!
!  Fx0       Initial float x-location (real; grid units or longitude).
!
!  Fy0       Initial float y-location (real; grid units or latitude).
!
!  Fz0       Initial float z-location (real; vertical level or depth).
!              If Fz0 is less than or equal to zero, Fz0 is the initial
!              depth in meters.  Otherwise, if Fz0 is positive and
!
!                             0 < Fz0 =< N(ng),
!
!              Fz0 is the initial position relative to the W grid
!              (0 = bottom; N = surface).
!
!              If the float trajectory type is Isobaric (Ftype=2) or
!              Geopotential (Ftype=3), Fz0 must be a negative number
!              representing depth in meters. If the float type is
!              Lagrangian (Ftype=1), Fz0 can be a level (positive) or
!              a depth in meters (negative).
!
!              WARNING: If the depth in meters at particular horizontal
!                       is not bounded, the floats are released at the
!                       surface.
!
!  Fdt       Float cluster release time interval (real; days), only used
!              if Fcount > 1:
!
!              Fdt = 0,  Fcount floats will be deployed simultaneously
!                        with a distribution centered at (Fx0,Fy0,Fz0)
!                        and defined by (Fdx,Fdy,Fdz).
!
!              Fdt > 0,  a cluster of floats will be deployed from
!                        (Fx0,Fy0,Fz0) at Fdt intervals until Fcount
!                        floats are released.
!
!  Fdx       Cluster x-distribution parameter (real), only used if
!              Fcount > 1 and Fdt = 0.
!
!  Fdy       Cluster y-distribution parameter (real), only used if
!              Fcount > 1 and Fdt = 0.
!
!  Fdz       Cluster z-distribution parameter (real), only used if
!              Fcount > 1 and Fdt = 0.
!
!            NOTE:  the parameters (Fdx,Fdy,Fdz) can be used to specify
!            ====   any type of cluster distribution, for instance:
!
!                   * Lines of floats:
!
!                         Fdx > 0,  Fdy = 0,  Fdz = 0
!                         Fdx = 0,  Fdy > 0,  Fdz = 0
!                         Fdx = 0,  Fdy = 0,  Fdz > 0
!
!             The USER can use any of these parameters to design any
!             cluster distribution in routine "init_floats.F".
