!  Floats Input Parameters.
!
!svn $Id$
!========================================================= Hernan G. Arango ===
!  Copyright (c) 2002-2014 The ROMS/TOMS Group                                !
!    Licensed under a MIT/X style license                                     !
!    See License_ROMS.txt                                                     !
!==============================================================================
!                                                                             !
! Input parameters can be entered in ANY order, provided that the parameter   !
! KEYWORD (usually, upper case) is typed correctly followed by "="  or "=="   !
! symbols. Any comment lines are allowed and must begin with an exclamation   !
! mark (!) in column one.  Comments may  appear to the right of a parameter   !
! specification to improve documentation.  Comments will be ignored  during   !
! reading.  Blank lines are also allowed and ignored. Continuation lines in   !
! a parameter specification are allowed and must be preceded by a backslash   !
! (\).  In some instances, more than one value is required for a parameter.   !
! If fewer values are provided, the  last value  is assigned for the entire   !
! parameter array.  The multiplication symbol (*),  without blank spaces in   !
! between, is allowed for a parameter specification.  For example, in a two   !
! grids nested application:                                                   !
!                                                                             !
!    AKT_BAK == 2*1.0d-6  2*5.0d-6              ! m2/s                        !
!                                                                             !
! indicates that the first two entries of array AKT_BAK,  in fortran column-  !
! major order, will have the same value of "1.0d-6" for grid 1,  whereas the  !
! next two entries will have the same value of "5.0d-6" for grid 2.           !
!                                                                             !
! In multiple levels of nesting and/or multiple connected domains  step-ups,  !
! "Ngrids" entries are expected for some of these parameters.  In such case,  !
! the order of the entries for a parameter is extremely important.  It  must  !
! follow the same order (1:Ngrids) as in the state variable declaration. The  !
! USER may follow the above guidelines for specifying his/her values.  These  !
! parameters are marked by "==" plural symbol after the KEYWORD.              !
!                                                                             !
!==============================================================================
!
! Switch to control the computation of floats trajectories within nested
! and/or multiple connected grids, [1:Ngrids].
!
     Lfloats == T T

! Switch to control the printing of floats positions to standard output
! file, [1:Ngrids].
!
      Fprint == T T

! Flag indicating re-start from previous solution. If FRREC = 0, a new
! NetCDF output file is created.

       FRREC == 0

! If applicable, input script file name containing biological floats behavior
! model parameters.

     FBIONAM =  behavior_larvae.in

! Number of floats to release in each nested grid.  These values are
! essential because the FLOATS structure in "mod_floats" is dynamically
! allocated using these values, [1:Ngrids].

     NFLOATS == 31207  0  

! Initial floats locations for all grids:
!
!   G      Nested grid number
!   C      Initial horizontal coordinate type (0: grid units, 1: spherical)
!   T      Float trajectory type (1: Lagrangian, 2: isobaric, 3: Geopotential)
!   N      Number floats to be released at (Fx0,Fy0,Fz0)
!   Ft0    Float release time (days) after model initialization
!   Fx0    Initial float X-location (grid units or longitude)
!   Fy0    Initial float Y-location (grid units or latitude)
!   Fz0    Initial float Z-location (grid units or depth)
!   Fdt    Float cluster release time interval (days)
!   Fdx    Float cluster X-distribution parameter
!   Fdy    Float cluster Y-distribution parameter
!   Fdz    Float cluster Z-distribution parameter

POS = G, C, T, N,   Ft0,     Fx0,    Fy0,    Fz0,    Fdt,    Fdx,    Fdy,   Fdz

1 1 1 1 2.000000 123.940247 24.200648 -28.759000 0.000000 0.000000 0.000000 0.000000
1 1 1 1 2.000000 123.941231 24.200642 -28.300000 0.000000 0.000000 0.000000 0.000000
1 1 1 1 2.000000 123.942216 24.200635 -24.770000 0.000000 0.000000 0.000000 0.000000
1 1 1 1 2.000000 123.943200 24.200629 -27.122000 0.000000 0.000000 0.000000 0.000000
1 1 1 1 2.000000 123.937299 24.201569 -28.300000 0.000000 0.000000 0.000000 0.000000
1 1 1 1 2.000000 123.938284 24.201563 -23.300000 0.000000 0.000000 0.000000 0.000000
1 1 1 1 2.000000 123.939269 24.201557 -18.300000 0.000000 0.000000 0.000000 0.000000
1 1 1 1 2.000000 123.940253 24.201551 -17.548000 0.000000 0.000000 0.000000 0.000000
1 1 1 1 2.000000 123.941238 24.201545 -17.348000 0.000000 0.000000 0.000000 0.000000
1 1 1 1 2.000000 123.942222 24.201539 -18.738000 0.000000 0.000000 0.000000 0.000000
1 1 1 1 2.000000 123.943207 24.201532 -24.953000 0.000000 0.000000 0.000000 0.000000
1 1 1 1 2.000000 123.932383 24.202502 -28.673000 0.000000 0.000000 0.000000 0.000000
1 1 1 1 2.000000 123.933368 24.202496 -28.300000 0.000000 0.000000 0.000000 0.000000
1 1 1 1 2.000000 123.934352 24.202490 -23.300000 0.000000 0.000000 0.000000 0.000000
1 1 1 1 2.000000 123.935337 24.202484 -20.965000 0.000000 0.000000 0.000000 0.000000
1 1 1 1 2.000000 123.936322 24.202478 -18.300000 0.000000 0.000000 0.000000 0.000000
1 1 1 1 2.000000 123.937306 24.202472 -16.198000 0.000000 0.000000 0.000000 0.000000
1 1 1 1 2.000000 123.938291 24.202466 -13.300000 0.000000 0.000000 0.000000 0.000000
1 1 1 1 2.000000 123.939275 24.202460 -12.610000 0.000000 0.000000 0.000000 0.000000
1 1 1 1 2.000000 123.940260 24.202454 -12.124000 0.000000 0.000000 0.000000 0.000000
1 1 1 1 2.000000 123.941244 24.202448 -14.200000 0.000000 0.000000 0.000000 0.000000
1 1 1 1 2.000000 123.942229 24.202442 -18.123000 0.000000 0.000000 0.000000 0.000000
1 1 1 1 2.000000 123.943214 24.202436 -25.179000 0.000000 0.000000 0.000000 0.000000
1 1 1 1 2.000000 123.928451 24.203429 -28.300000 0.000000 0.000000 0.000000 0.000000
1 1 1 1 2.000000 123.929436 24.203423 -27.765000 0.000000 0.000000 0.000000 0.000000
1 1 1 1 2.000000 123.930421 24.203417 -25.156000 0.000000 0.000000 0.000000 0.000000
1 1 1 1 2.000000 123.931405 24.203411 -23.300000 0.000000 0.000000 0.000000 0.000000
1 1 1 1 2.000000 123.932390 24.203405 -20.639000 0.000000 0.000000 0.000000 0.000000
1 1 1 1 2.000000 123.933374 24.203399 -18.300000 0.000000 0.000000 0.000000 0.000000
1 1 1 1 2.000000 123.934359 24.203393 -13.300000 0.000000 0.000000 0.000000 0.000000
1 1 1 1 2.000000 123.935344 24.203387 -10.621000 0.000000 0.000000 0.000000 0.000000
1 1 1 1 2.000000 123.936328 24.203381 -9.050000 0.000000 0.000000 0.000000 0.000000
1 1 1 1 2.000000 123.937313 24.203375 -8.300000 0.000000 0.000000 0.000000 0.000000
1 1 1 1 2.000000 123.938297 24.203369 -7.759600 0.000000 0.000000 0.000000 0.000000
1 1 1 1 2.000000 123.939282 24.203363 -7.602000 0.000000 0.000000 0.000000 0.000000
1 1 1 1 2.000000 123.940266 24.203357 -8.300000 0.000000 0.000000 0.000000 0.000000
1 1 1 1 2.000000 123.941251 24.203351 -13.972000 0.000000 0.000000 0.000000 0.000000
1 1 1 1 2.000000 123.942236 24.203345 -18.300000 0.000000 0.000000 0.000000 0.000000
1 1 1 1 2.000000 123.943220 24.203339 -24.800000 0.000000 0.000000 0.000000 0.000000
1 1 1 1 2.000000 123.925504 24.204350 -28.811000 0.000000 0.000000 0.000000 0.000000
1 1 1 1 2.000000 123.926489 24.204344 -28.300000 0.000000 0.000000 0.000000 0.000000
1 1 1 1 2.000000 123.927473 24.204338 -25.061000 0.000000 0.000000 0.000000 0.000000
1 1 1 1 2.000000 123.928458 24.204332 -23.300000 0.000000 0.000000 0.000000 0.000000
1 1 1 1 2.000000 123.929442 24.204326 -18.300000 0.000000 0.000000 0.000000 0.000000
1 1 1 1 2.000000 123.930427 24.204320 -13.300000 0.000000 0.000000 0.000000 0.000000
1 1 1 1 2.000000 123.931412 24.204314 -9.550000 0.000000 0.000000 0.000000 0.000000
1 1 1 1 2.000000 123.932396 24.204308 -7.195600 0.000000 0.000000 0.000000 0.000000
1 1 1 1 2.000000 123.933381 24.204302 -5.815300 0.000000 0.000000 0.000000 0.000000
1 1 1 1 2.000000 123.934365 24.204296 -5.023000 0.000000 0.000000 0.000000 0.000000
1 1 1 1 2.000000 123.935350 24.204290 -4.833600 0.000000 0.000000 0.000000 0.000000
1 1 1 1 2.000000 123.936335 24.204284 -3.210700 0.000000 0.000000 0.000000 0.000000
1 1 1 1 2.000000 123.937319 24.204278 -4.833400 0.000000 0.000000 0.000000 0.000000
1 1 1 1 2.000000 123.938304 24.204272 -5.429100 0.000000 0.000000 0.000000 0.000000
1 1 1 1 2.000000 123.939289 24.204266 -5.700600 0.000000 0.000000 0.000000 0.000000
1 1 1 1 2.000000 123.940273 24.204260 -7.931800 0.000000 0.000000 0.000000 0.000000
1 1 1 1 2.000000 123.941258 24.204254 -14.046000 0.000000 0.000000 0.000000 0.000000
1 1 1 1 2.000000 123.942242 24.204248 -19.165000 0.000000 0.000000 0.000000 0.000000
1 1 1 1 2.000000 123.943227 24.204242 -24.757000 0.000000 0.000000 0.000000 0.000000
1 1 1 1 2.000000 123.922557 24.205271 -28.300000 0.000000 0.000000 0.000000 0.000000
1 1 1 1 2.000000 123.923541 24.205265 -27.181000 0.000000 0.000000 0.000000 0.000000
1 1 1 1 2.000000 123.924526 24.205259 -24.202000 0.000000 0.000000 0.000000 0.000000
1 1 1 1 2.000000 123.925511 24.205253 -23.300000 0.000000 0.000000 0.000000 0.000000
1 1 1 1 2.000000 123.926495 24.205247 -18.300000 0.000000 0.000000 0.000000 0.000000
1 1 1 1 2.000000 123.927480 24.205241 -13.300000 0.000000 0.000000 0.000000 0.000000
1 1 1 1 2.000000 123.928464 24.205235 -10.800000 0.000000 0.000000 0.000000 0.000000
1 1 1 1 2.000000 123.929449 24.205229 -8.300000 0.000000 0.000000 0.000000 0.000000
1 1 1 1 2.000000 123.930434 24.205223 -6.616300 0.000000 0.000000 0.000000 0.000000
1 1 1 1 2.000000 123.931418 24.205217 -5.735300 0.000000 0.000000 0.000000 0.000000
1 1 1 1 2.000000 123.932403 24.205211 -4.667800 0.000000 0.000000 0.000000 0.000000
1 1 1 1 2.000000 123.933387 24.205205 -0.618000 0.000000 0.000000 0.000000 0.000000
1 1 1 1 2.000000 123.938311 24.205175 -3.622200 0.000000 0.000000 0.000000 0.000000
1 1 1 1 2.000000 123.939295 24.205169 -5.735300 0.000000 0.000000 0.000000 0.000000
1 1 1 1 2.000000 123.940280 24.205163 -7.565800 0.000000 0.000000 0.000000 0.000000
1 1 1 1 2.000000 123.941264 24.205157 -14.236000 0.000000 0.000000 0.000000 0.000000
1 1 1 1 2.000000 123.942249 24.205151 -20.437000 0.000000 0.000000 0.000000 0.000000
1 1 1 1 2.000000 123.943234 24.205145 -25.137000 0.000000 0.000000 0.000000 0.000000
1 1 1 1 2.000000 123.919609 24.206192 -28.300000 0.000000 0.000000 0.000000 0.000000
1 1 1 1 2.000000 123.920594 24.206186 -27.427000 0.000000 0.000000 0.000000 0.000000
1 1 1 1 2.000000 123.921579 24.206180 -25.619000 0.000000 0.000000 0.000000 0.000000
1 1 1 1 2.000000 123.922563 24.206174 -23.300000 0.000000 0.000000 0.000000 0.000000
1 1 1 1 2.000000 123.923548 24.206168 -15.800000 0.000000 0.000000 0.000000 0.000000
1 1 1 1 2.000000 123.924532 24.206163 -10.996000 0.000000 0.000000 0.000000 0.000000
1 1 1 1 2.000000 123.925517 24.206157 -9.354000 0.000000 0.000000 0.000000 0.000000
1 1 1 1 2.000000 123.926502 24.206151 -8.300000 0.000000 0.000000 0.000000 0.000000
1 1 1 1 2.000000 123.927486 24.206145 -6.853000 0.000000 0.000000 0.000000 0.000000
1 1 1 1 2.000000 123.928471 24.206139 -6.479300 0.000000 0.000000 0.000000 0.000000
1 1 1 1 2.000000 123.929456 24.206133 -6.185500 0.000000 0.000000 0.000000 0.000000
1 1 1 1 2.000000 123.930440 24.206127 -5.249600 0.000000 0.000000 0.000000 0.000000
1 1 1 1 2.000000 123.931425 24.206121 -2.915100 0.000000 0.000000 0.000000 0.000000
1 1 1 1 2.000000 123.939302 24.206072 -5.280100 0.000000 0.000000 0.000000 0.000000
1 1 1 1 2.000000 123.940286 24.206066 -6.823800 0.000000 0.000000 0.000000 0.000000
1 1 1 1 2.000000 123.941271 24.206060 -14.093000 0.000000 0.000000 0.000000 0.000000
1 1 1 1 2.000000 123.942256 24.206054 -19.148000 0.000000 0.000000 0.000000 0.000000
1 1 1 1 2.000000 123.943240 24.206048 -24.409000 0.000000 0.000000 0.000000 0.000000
1 1 1 1 2.000000 123.916662 24.207113 -27.800000 0.000000 0.000000 0.000000 0.000000
1 1 1 1 2.000000 123.917647 24.207107 -26.300000 0.000000 0.000000 0.000000 0.000000
1 1 1 1 2.000000 123.918631 24.207101 -25.416000 0.000000 0.000000 0.000000 0.000000
1 1 1 1 2.000000 123.919616 24.207095 -24.070000 0.000000 0.000000 0.000000 0.000000
1 1 1 1 2.000000 123.920600 24.207089 -23.300000 0.000000 0.000000 0.000000 0.000000
1 1 1 1 2.000000 123.921585 24.207084 -18.300000 0.000000 0.000000 0.000000 0.000000
1 1 1 1 2.000000 123.922570 24.207078 -13.300000 0.000000 0.000000 0.000000 0.000000
1 1 1 1 2.000000 123.923554 24.207072 -6.825200 0.000000 0.000000 0.000000 0.000000
1 1 1 1 2.000000 123.924539 24.207066 -6.066100 0.000000 0.000000 0.000000 0.000000
1 1 1 1 2.000000 123.925524 24.207060 -6.196400 0.000000 0.000000 0.000000 0.000000
1 1 1 1 2.000000 123.926508 24.207054 -6.035200 0.000000 0.000000 0.000000 0.000000
1 1 1 1 2.000000 123.927493 24.207048 -6.328600 0.000000 0.000000 0.000000 0.000000
1 1 1 1 2.000000 123.928477 24.207042 -5.107200 0.000000 0.000000 0.000000 0.000000
1 1 1 1 2.000000 123.929462 24.207036 -2.051000 0.000000 0.000000 0.000000 0.000000
1 1 1 1 2.000000 123.939308 24.206975 -1.955500 0.000000 0.000000 0.000000 0.000000
1 1 1 1 2.000000 123.940293 24.206969 -5.818400 0.000000 0.000000 0.000000 0.000000
1 1 1 1 2.000000 123.941278 24.206963 -14.095000 0.000000 0.000000 0.000000 0.000000
1 1 1 1 2.000000 123.942262 24.206957 -18.905000 0.000000 0.000000 0.000000 0.000000
1 1 1 1 2.000000 123.943247 24.206951 -23.861000 0.000000 0.000000 0.000000 0.000000
1 1 1 1 2.000000 123.914699 24.208028 -27.133000 0.000000 0.000000 0.000000 0.000000
1 1 1 1 2.000000 123.915684 24.208022 -25.300000 0.000000 0.000000 0.000000 0.000000
1 1 1 1 2.000000 123.916668 24.208016 -24.173000 0.000000 0.000000 0.000000 0.000000
1 1 1 1 2.000000 123.917653 24.208010 -23.300000 0.000000 0.000000 0.000000 0.000000
1 1 1 1 2.000000 123.918638 24.208004 -19.337000 0.000000 0.000000 0.000000 0.000000
1 1 1 1 2.000000 123.919622 24.207998 -15.800000 0.000000 0.000000 0.000000 0.000000
1 1 1 1 2.000000 123.920607 24.207993 -12.263000 0.000000 0.000000 0.000000 0.000000
1 1 1 1 2.000000 123.921592 24.207987 -8.300000 0.000000 0.000000 0.000000 0.000000
1 1 1 1 2.000000 123.922576 24.207981 -6.288200 0.000000 0.000000 0.000000 0.000000
1 1 1 1 2.000000 123.923561 24.207975 -6.042400 0.000000 0.000000 0.000000 0.000000
1 1 1 1 2.000000 123.924545 24.207969 -6.042400 0.000000 0.000000 0.000000 0.000000
1 1 1 1 2.000000 123.925530 24.207963 -5.848200 0.000000 0.000000 0.000000 0.000000
1 1 1 1 2.000000 123.926515 24.207957 -4.978800 0.000000 0.000000 0.000000 0.000000
1 1 1 1 2.000000 123.927499 24.207951 -1.478700 0.000000 0.000000 0.000000 0.000000
1 1 1 1 2.000000 123.932423 24.207921 -0.493500 0.000000 0.000000 0.000000 0.000000
1 1 1 1 2.000000 123.933407 24.207915 -0.730700 0.000000 0.000000 0.000000 0.000000
1 1 1 1 2.000000 123.934392 24.207909 -0.291700 0.000000 0.000000 0.000000 0.000000
1 1 1 1 2.000000 123.939315 24.207878 -0.163000 0.000000 0.000000 0.000000 0.000000
1 1 1 1 2.000000 123.940300 24.207872 -5.765200 0.000000 0.000000 0.000000 0.000000
1 1 1 1 2.000000 123.941284 24.207866 -14.273000 0.000000 0.000000 0.000000 0.000000
1 1 1 1 2.000000 123.942269 24.207860 -20.669000 0.000000 0.000000 0.000000 0.000000
1 1 1 1 2.000000 123.943254 24.207854 -24.708000 0.000000 0.000000 0.000000 0.000000
1 1 1 1 2.000000 123.912736 24.208943 -28.300000 0.000000 0.000000 0.000000 0.000000
1 1 1 1 2.000000 123.913721 24.208937 -26.050000 0.000000 0.000000 0.000000 0.000000
1 1 1 1 2.000000 123.914706 24.208931 -24.300000 0.000000 0.000000 0.000000 0.000000
1 1 1 1 2.000000 123.915690 24.208925 -21.300000 0.000000 0.000000 0.000000 0.000000
1 1 1 1 2.000000 123.916675 24.208919 -19.550000 0.000000 0.000000 0.000000 0.000000
1 1 1 1 2.000000 123.917659 24.208913 -17.635000 0.000000 0.000000 0.000000 0.000000
1 1 1 1 2.000000 123.918644 24.208908 -13.300000 0.000000 0.000000 0.000000 0.000000
1 1 1 1 2.000000 123.919629 24.208902 -8.300000 0.000000 0.000000 0.000000 0.000000
1 1 1 1 2.000000 123.920613 24.208896 -6.350400 0.000000 0.000000 0.000000 0.000000
1 1 1 1 2.000000 123.921598 24.208890 -6.042400 0.000000 0.000000 0.000000 0.000000
1 1 1 1 2.000000 123.922583 24.208884 -5.123900 0.000000 0.000000 0.000000 0.000000
1 1 1 1 2.000000 123.923567 24.208878 -4.819500 0.000000 0.000000 0.000000 0.000000
1 1 1 1 2.000000 123.924552 24.208872 -3.642700 0.000000 0.000000 0.000000 0.000000
1 1 1 1 2.000000 123.925537 24.208866 -0.234200 0.000000 0.000000 0.000000 0.000000
1 1 1 1 2.000000 123.933414 24.208818 -0.750000 0.000000 0.000000 0.000000 0.000000
1 1 1 1 2.000000 123.934398 24.208812 -0.730700 0.000000 0.000000 0.000000 0.000000
1 1 1 1 2.000000 123.935383 24.208806 -0.470000 0.000000 0.000000 0.000000 0.000000
1 1 1 1 2.000000 123.936368 24.208800 -0.159600 0.000000 0.000000 0.000000 0.000000
1 1 1 1 2.000000 123.940306 24.208775 -5.429200 0.000000 0.000000 0.000000 0.000000
1 1 1 1 2.000000 123.941291 24.208769 -14.606000 0.000000 0.000000 0.000000 0.000000
1 1 1 1 2.000000 123.942276 24.208763 -23.300000 0.000000 0.000000 0.000000 0.000000
1 1 1 1 2.000000 124.009230 24.208334 -28.708000 0.000000 0.000000 0.000000 0.000000
1 1 1 1 2.000000 124.010215 24.208328 -28.300000 0.000000 0.000000 0.000000 0.000000
1 1 1 1 2.000000 124.011199 24.208321 -25.800000 0.000000 0.000000 0.000000 0.000000
1 1 1 1 2.000000 124.012184 24.208315 -24.548000 0.000000 0.000000 0.000000 0.000000
1 1 1 1 2.000000 124.013169 24.208308 -24.537000 0.000000 0.000000 0.000000 0.000000
1 1 1 1 2.000000 124.014153 24.208302 -25.266000 0.000000 0.000000 0.000000 0.000000
1 1 1 1 2.000000 124.015138 24.208295 -27.301000 0.000000 0.000000 0.000000 0.000000
1 1 1 1 2.000000 124.016122 24.208288 -28.626000 0.000000 0.000000 0.000000 0.000000
1 1 1 1 2.000000 123.911758 24.209852 -27.300000 0.000000 0.000000 0.000000 0.000000
1 1 1 1 2.000000 123.912743 24.209846 -25.050000 0.000000 0.000000 0.000000 0.000000
1 1 1 1 2.000000 123.913727 24.209840 -22.800000 0.000000 0.000000 0.000000 0.000000
1 1 1 1 2.000000 123.914712 24.209834 -20.300000 0.000000 0.000000 0.000000 0.000000
1 1 1 1 2.000000 123.915697 24.209828 -18.300000 0.000000 0.000000 0.000000 0.000000
1 1 1 1 2.000000 123.916681 24.209822 -13.965000 0.000000 0.000000 0.000000 0.000000
1 1 1 1 2.000000 123.917666 24.209817 -8.300000 0.000000 0.000000 0.000000 0.000000
1 1 1 1 2.000000 123.918651 24.209811 -6.350400 0.000000 0.000000 0.000000 0.000000
1 1 1 1 2.000000 123.919635 24.209805 -6.189100 0.000000 0.000000 0.000000 0.000000
1 1 1 1 2.000000 123.920620 24.209799 -5.429100 0.000000 0.000000 0.000000 0.000000
1 1 1 1 2.000000 123.921605 24.209793 -4.516000 0.000000 0.000000 0.000000 0.000000
1 1 1 1 2.000000 123.922589 24.209787 -2.479700 0.000000 0.000000 0.000000 0.000000
1 1 1 1 2.000000 123.934405 24.209715 -0.502800 0.000000 0.000000 0.000000 0.000000
1 1 1 1 2.000000 123.935390 24.209709 -0.664400 0.000000 0.000000 0.000000 0.000000
1 1 1 1 2.000000 123.936374 24.209703 -0.664400 0.000000 0.000000 0.000000 0.000000
1 1 1 1 2.000000 123.940313 24.209678 -5.667900 0.000000 0.000000 0.000000 0.000000
1 1 1 1 2.000000 123.941298 24.209672 -17.033000 0.000000 0.000000 0.000000 0.000000
1 1 1 1 2.000000 123.942282 24.209666 -27.006000 0.000000 0.000000 0.000000 0.000000
1 1 1 1 2.000000 124.005299 24.209263 -23.300000 0.000000 0.000000 0.000000 0.000000
1 1 1 1 2.000000 124.006283 24.209257 -20.877000 0.000000 0.000000 0.000000 0.000000
1 1 1 1 2.000000 124.007268 24.209250 -20.795000 0.000000 0.000000 0.000000 0.000000
1 1 1 1 2.000000 124.008253 24.209244 -21.119000 0.000000 0.000000 0.000000 0.000000
1 1 1 1 2.000000 124.009237 24.209237 -19.370000 0.000000 0.000000 0.000000 0.000000
1 1 1 1 2.000000 124.010222 24.209231 -17.467000 0.000000 0.000000 0.000000 0.000000
1 1 1 1 2.000000 124.011207 24.209224 -15.800000 0.000000 0.000000 0.000000 0.000000
1 1 1 1 2.000000 124.012191 24.209218 -15.800000 0.000000 0.000000 0.000000 0.000000
1 1 1 1 2.000000 124.013176 24.209211 -15.800000 0.000000 0.000000 0.000000 0.000000
1 1 1 1 2.000000 124.014160 24.209205 -18.300000 0.000000 0.000000 0.000000 0.000000
1 1 1 1 2.000000 124.015145 24.209198 -19.864000 0.000000 0.000000 0.000000 0.000000
1 1 1 1 2.000000 124.016130 24.209192 -21.908000 0.000000 0.000000 0.000000 0.000000
1 1 1 1 2.000000 124.017114 24.209185 -23.300000 0.000000 0.000000 0.000000 0.000000
1 1 1 1 2.000000 124.018099 24.209178 -28.643000 0.000000 0.000000 0.000000 0.000000
1 1 1 1 2.000000 123.910780 24.210761 -26.550000 0.000000 0.000000 0.000000 0.000000
1 1 1 1 2.000000 123.911764 24.210755 -24.300000 0.000000 0.000000 0.000000 0.000000
1 1 1 1 2.000000 123.912749 24.210749 -21.467000 0.000000 0.000000 0.000000 0.000000
1 1 1 1 2.000000 123.913734 24.210743 -19.300000 0.000000 0.000000 0.000000 0.000000
1 1 1 1 2.000000 123.914718 24.210737 -16.013000 0.000000 0.000000 0.000000 0.000000
1 1 1 1 2.000000 123.915703 24.210731 -12.050000 0.000000 0.000000 0.000000 0.000000
1 1 1 1 2.000000 123.916688 24.210726 -5.921200 0.000000 0.000000 0.000000 0.000000
1 1 1 1 2.000000 123.917672 24.210720 -5.280100 0.000000 0.000000 0.000000 0.000000
1 1 1 1 2.000000 123.918657 24.210714 -3.760700 0.000000 0.000000 0.000000 0.000000
1 1 1 1 2.000000 123.919642 24.210708 -2.412600 0.000000 0.000000 0.000000 0.000000
1 1 1 1 2.000000 123.920626 24.210702 -1.270900 0.000000 0.000000 0.000000 0.000000
1 1 1 1 2.000000 123.935396 24.210612 -0.470000 0.000000 0.000000 0.000000 0.000000
1 1 1 1 2.000000 123.936381 24.210606 -0.534100 0.000000 0.000000 0.000000 0.000000
1 1 1 1 2.000000 123.940320 24.210582 -4.810200 0.000000 0.000000 0.000000 0.000000
1 1 1 1 2.000000 123.941304 24.210575 -17.033000 0.000000 0.000000 0.000000 0.000000
1 1 1 1 2.000000 123.942289 24.210569 -27.625000 0.000000 0.000000 0.000000 0.000000
1 1 1 1 2.000000 124.001367 24.210192 -28.300000 0.000000 0.000000 0.000000 0.000000
1 1 1 1 2.000000 124.002352 24.210186 -27.050000 0.000000 0.000000 0.000000 0.000000
1 1 1 1 2.000000 124.003337 24.210179 -25.800000 0.000000 0.000000 0.000000 0.000000
1 1 1 1 2.000000 124.004321 24.210173 -23.300000 0.000000 0.000000 0.000000 0.000000
1 1 1 1 2.000000 124.005306 24.210166 -18.834000 0.000000 0.000000 0.000000 0.000000
1 1 1 1 2.000000 124.006291 24.210160 -13.300000 0.000000 0.000000 0.000000 0.000000
1 1 1 1 2.000000 124.007275 24.210153 -12.328000 0.000000 0.000000 0.000000 0.000000
1 1 1 1 2.000000 124.008260 24.210147 -10.558000 0.000000 0.000000 0.000000 0.000000
1 1 1 1 2.000000 124.009244 24.210140 -7.465100 0.000000 0.000000 0.000000 0.000000
1 1 1 1 2.000000 124.010229 24.210134 -6.328600 0.000000 0.000000 0.000000 0.000000
1 1 1 1 2.000000 124.011214 24.210127 -6.590100 0.000000 0.000000 0.000000 0.000000
1 1 1 1 2.000000 124.012198 24.210121 -6.328600 0.000000 0.000000 0.000000 0.000000
1 1 1 1 2.000000 124.013183 24.210114 -6.630100 0.000000 0.000000 0.000000 0.000000
1 1 1 1 2.000000 124.014168 24.210108 -8.300000 0.000000 0.000000 0.000000 0.000000
1 1 1 1 2.000000 124.015152 24.210101 -10.809000 0.000000 0.000000 0.000000 0.000000
1 1 1 1 2.000000 124.016137 24.210095 -13.300000 0.000000 0.000000 0.000000 0.000000
1 1 1 1 2.000000 124.017121 24.210088 -18.300000 0.000000 0.000000 0.000000 0.000000
1 1 1 1 2.000000 124.018106 24.210081 -21.063000 0.000000 0.000000 0.000000 0.000000
1 1 1 1 2.000000 124.019091 24.210075 -27.050000 0.000000 0.000000 0.000000 0.000000
1 1 1 1 2.000000 123.908817 24.211676 -28.300000 0.000000 0.000000 0.000000 0.000000
1 1 1 1 2.000000 123.909802 24.211670 -25.800000 0.000000 0.000000 0.000000 0.000000
1 1 1 1 2.000000 123.910786 24.211664 -23.300000 0.000000 0.000000 0.000000 0.000000
1 1 1 1 2.000000 123.911771 24.211658 -20.550000 0.000000 0.000000 0.000000 0.000000
1 1 1 1 2.000000 123.912756 24.211652 -18.300000 0.000000 0.000000 0.000000 0.000000
1 1 1 1 2.000000 123.913740 24.211646 -13.300000 0.000000 0.000000 0.000000 0.000000
1 1 1 1 2.000000 123.914725 24.211640 -8.300000 0.000000 0.000000 0.000000 0.000000
1 1 1 1 2.000000 123.915710 24.211635 -5.767600 0.000000 0.000000 0.000000 0.000000
1 1 1 1 2.000000 123.916694 24.211629 -4.062200 0.000000 0.000000 0.000000 0.000000
1 1 1 1 2.000000 123.917679 24.211623 -3.010300 0.000000 0.000000 0.000000 0.000000
1 1 1 1 2.000000 123.940326 24.211485 -4.834000 0.000000 0.000000 0.000000 0.000000
1 1 1 1 2.000000 123.941311 24.211479 -13.300000 0.000000 0.000000 0.000000 0.000000
1 1 1 1 2.000000 123.942295 24.211472 -25.800000 0.000000 0.000000 0.000000 0.000000
1 1 1 1 2.000000 123.999405 24.211108 -28.300000 0.000000 0.000000 0.000000 0.000000
1 1 1 1 2.000000 124.000390 24.211102 -24.975000 0.000000 0.000000 0.000000 0.000000
1 1 1 1 2.000000 124.001374 24.211095 -20.961000 0.000000 0.000000 0.000000 0.000000
1 1 1 1 2.000000 124.002359 24.211089 -18.300000 0.000000 0.000000 0.000000 0.000000
1 1 1 1 2.000000 124.003344 24.211083 -15.800000 0.000000 0.000000 0.000000 0.000000
1 1 1 1 2.000000 124.004328 24.211076 -15.800000 0.000000 0.000000 0.000000 0.000000
1 1 1 1 2.000000 124.005313 24.211070 -12.049000 0.000000 0.000000 0.000000 0.000000
1 1 1 1 2.000000 124.006298 24.211063 -8.300000 0.000000 0.000000 0.000000 0.000000
1 1 1 1 2.000000 124.007282 24.211057 -6.328600 0.000000 0.000000 0.000000 0.000000
1 1 1 1 2.000000 124.008267 24.211050 -6.178300 0.000000 0.000000 0.000000 0.000000
1 1 1 1 2.000000 124.009252 24.211043 -5.728100 0.000000 0.000000 0.000000 0.000000
1 1 1 1 2.000000 124.010236 24.211037 -4.961600 0.000000 0.000000 0.000000 0.000000
1 1 1 1 2.000000 124.011221 24.211030 -4.792300 0.000000 0.000000 0.000000 0.000000
1 1 1 1 2.000000 124.012205 24.211024 -4.685300 0.000000 0.000000 0.000000 0.000000
1 1 1 1 2.000000 124.013190 24.211017 -4.371400 0.000000 0.000000 0.000000 0.000000
1 1 1 1 2.000000 124.014175 24.211011 -5.280900 0.000000 0.000000 0.000000 0.000000
1 1 1 1 2.000000 124.015159 24.211004 -5.578600 0.000000 0.000000 0.000000 0.000000
1 1 1 1 2.000000 124.016144 24.210998 -6.630100 0.000000 0.000000 0.000000 0.000000
1 1 1 1 2.000000 124.017129 24.210991 -9.337000 0.000000 0.000000 0.000000 0.000000
1 1 1 1 2.000000 124.018113 24.210985 -13.300000 0.000000 0.000000 0.000000 0.000000
1 1 1 1 2.000000 124.019098 24.210978 -18.300000 0.000000 0.000000 0.000000 0.000000
1 1 1 1 2.000000 124.020082 24.210971 -23.300000 0.000000 0.000000 0.000000 0.000000
1 1 1 1 2.000000 124.021067 24.210965 -28.300000 0.000000 0.000000 0.000000 0.000000
1 1 1 1 2.000000 123.907839 24.212585 -28.050000 0.000000 0.000000 0.000000 0.000000
1 1 1 1 2.000000 123.908823 24.212579 -24.800000 0.000000 0.000000 0.000000 0.000000
1 1 1 1 2.000000 123.909808 24.212573 -22.800000 0.000000 0.000000 0.000000 0.000000
1 1 1 1 2.000000 123.910793 24.212567 -20.300000 0.000000 0.000000 0.000000 0.000000
1 1 1 1 2.000000 123.911777 24.212561 -18.300000 0.000000 0.000000 0.000000 0.000000
1 1 1 1 2.000000 123.912762 24.212555 -11.013000 0.000000 0.000000 0.000000 0.000000
1 1 1 1 2.000000 123.913747 24.212549 -6.781300 0.000000 0.000000 0.000000 0.000000
1 1 1 1 2.000000 123.914731 24.212544 -4.516000 0.000000 0.000000 0.000000 0.000000
1 1 1 1 2.000000 123.915716 24.212538 -2.595100 0.000000 0.000000 0.000000 0.000000
1 1 1 1 2.000000 123.922609 24.212496 -0.904100 0.000000 0.000000 0.000000 0.000000
1 1 1 1 2.000000 123.923593 24.212490 -0.449800 0.000000 0.000000 0.000000 0.000000
1 1 1 1 2.000000 123.924578 24.212484 -0.753700 0.000000 0.000000 0.000000 0.000000
1 1 1 1 2.000000 123.940333 24.212388 -4.833600 0.000000 0.000000 0.000000 0.000000
1 1 1 1 2.000000 123.941317 24.212382 -12.050000 0.000000 0.000000 0.000000 0.000000
1 1 1 1 2.000000 123.942302 24.212376 -23.300000 0.000000 0.000000 0.000000 0.000000
1 1 1 1 2.000000 123.998428 24.212018 -28.300000 0.000000 0.000000 0.000000 0.000000
1 1 1 1 2.000000 123.999412 24.212011 -23.300000 0.000000 0.000000 0.000000 0.000000
1 1 1 1 2.000000 124.000397 24.212005 -19.684000 0.000000 0.000000 0.000000 0.000000
1 1 1 1 2.000000 124.001381 24.211999 -15.474000 0.000000 0.000000 0.000000 0.000000
1 1 1 1 2.000000 124.002366 24.211992 -12.489000 0.000000 0.000000 0.000000 0.000000
1 1 1 1 2.000000 124.003351 24.211986 -8.723000 0.000000 0.000000 0.000000 0.000000
1 1 1 1 2.000000 124.004335 24.211979 -7.999000 0.000000 0.000000 0.000000 0.000000
1 1 1 1 2.000000 124.005320 24.211973 -6.178300 0.000000 0.000000 0.000000 0.000000
1 1 1 1 2.000000 124.006305 24.211966 -5.878000 0.000000 0.000000 0.000000 0.000000
1 1 1 1 2.000000 124.007289 24.211960 -5.256400 0.000000 0.000000 0.000000 0.000000
1 1 1 1 2.000000 124.008274 24.211953 -3.205100 0.000000 0.000000 0.000000 0.000000
1 1 1 1 2.000000 124.009259 24.211947 -0.017300 0.000000 0.000000 0.000000 0.000000
1 1 1 1 2.000000 124.015166 24.211907 -0.474800 0.000000 0.000000 0.000000 0.000000
1 1 1 1 2.000000 124.016151 24.211901 -3.778500 0.000000 0.000000 0.000000 0.000000
1 1 1 1 2.000000 124.017136 24.211894 -5.252600 0.000000 0.000000 0.000000 0.000000
1 1 1 1 2.000000 124.018120 24.211888 -8.018900 0.000000 0.000000 0.000000 0.000000
1 1 1 1 2.000000 124.019105 24.211881 -11.013000 0.000000 0.000000 0.000000 0.000000
1 1 1 1 2.000000 124.020090 24.211874 -16.013000 0.000000 0.000000 0.000000 0.000000
1 1 1 1 2.000000 124.021074 24.211868 -21.650000 0.000000 0.000000 0.000000 0.000000
1 1 1 1 2.000000 124.022059 24.211861 -28.300000 0.000000 0.000000 0.000000 0.000000
1 1 1 1 2.000000 123.906860 24.213494 -27.125000 0.000000 0.000000 0.000000 0.000000
1 1 1 1 2.000000 123.907845 24.213488 -24.300000 0.000000 0.000000 0.000000 0.000000
1 1 1 1 2.000000 123.908830 24.213482 -22.050000 0.000000 0.000000 0.000000 0.000000
1 1 1 1 2.000000 123.909814 24.213476 -19.800000 0.000000 0.000000 0.000000 0.000000
1 1 1 1 2.000000 123.910799 24.213470 -15.800000 0.000000 0.000000 0.000000 0.000000
1 1 1 1 2.000000 123.911784 24.213464 -8.300000 0.000000 0.000000 0.000000 0.000000
1 1 1 1 2.000000 123.912768 24.213458 -4.819500 0.000000 0.000000 0.000000 0.000000
1 1 1 1 2.000000 123.913753 24.213453 -3.037100 0.000000 0.000000 0.000000 0.000000
1 1 1 1 2.000000 123.921631 24.213405 -0.370700 0.000000 0.000000 0.000000 0.000000
1 1 1 1 2.000000 123.922615 24.213399 -0.797100 0.000000 0.000000 0.000000 0.000000
1 1 1 1 2.000000 123.923600 24.213393 -0.860300 0.000000 0.000000 0.000000 0.000000
1 1 1 1 2.000000 123.940339 24.213291 -4.538400 0.000000 0.000000 0.000000 0.000000
1 1 1 1 2.000000 123.941324 24.213285 -9.520000 0.000000 0.000000 0.000000 0.000000
1 1 1 1 2.000000 123.942309 24.213279 -19.550000 0.000000 0.000000 0.000000 0.000000
1 1 1 1 2.000000 123.998435 24.212921 -25.487000 0.000000 0.000000 0.000000 0.000000
1 1 1 1 2.000000 123.999419 24.212915 -21.513000 0.000000 0.000000 0.000000 0.000000
1 1 1 1 2.000000 124.000404 24.212908 -17.801000 0.000000 0.000000 0.000000 0.000000
1 1 1 1 2.000000 124.001389 24.212902 -12.562000 0.000000 0.000000 0.000000 0.000000
1 1 1 1 2.000000 124.002373 24.212895 -8.300000 0.000000 0.000000 0.000000 0.000000
1 1 1 1 2.000000 124.003358 24.212889 -8.152300 0.000000 0.000000 0.000000 0.000000
1 1 1 1 2.000000 124.004342 24.212882 -7.388200 0.000000 0.000000 0.000000 0.000000
1 1 1 1 2.000000 124.005327 24.212876 -2.917900 0.000000 0.000000 0.000000 0.000000
1 1 1 1 2.000000 124.006312 24.212869 -0.854100 0.000000 0.000000 0.000000 0.000000
1 1 1 1 2.000000 124.017143 24.212797 -1.277800 0.000000 0.000000 0.000000 0.000000
1 1 1 1 2.000000 124.018128 24.212791 -4.374500 0.000000 0.000000 0.000000 0.000000
1 1 1 1 2.000000 124.019112 24.212784 -5.469200 0.000000 0.000000 0.000000 0.000000
1 1 1 1 2.000000 124.020097 24.212777 -8.300000 0.000000 0.000000 0.000000 0.000000
1 1 1 1 2.000000 124.021082 24.212771 -13.300000 0.000000 0.000000 0.000000 0.000000
1 1 1 1 2.000000 124.022066 24.212764 -19.132000 0.000000 0.000000 0.000000 0.000000
1 1 1 1 2.000000 124.023051 24.212758 -25.800000 0.000000 0.000000 0.000000 0.000000
1 1 1 1 2.000000 123.905882 24.214403 -27.532000 0.000000 0.000000 0.000000 0.000000
1 1 1 1 2.000000 123.906867 24.214397 -24.300000 0.000000 0.000000 0.000000 0.000000
1 1 1 1 2.000000 123.907851 24.214391 -21.300000 0.000000 0.000000 0.000000 0.000000
1 1 1 1 2.000000 123.908836 24.214385 -19.300000 0.000000 0.000000 0.000000 0.000000
1 1 1 1 2.000000 123.909821 24.214379 -15.800000 0.000000 0.000000 0.000000 0.000000
1 1 1 1 2.000000 123.910805 24.214373 -8.300000 0.000000 0.000000 0.000000 0.000000
1 1 1 1 2.000000 123.911790 24.214367 -4.213200 0.000000 0.000000 0.000000 0.000000
1 1 1 1 2.000000 123.912775 24.214362 -0.828600 0.000000 0.000000 0.000000 0.000000
1 1 1 1 2.000000 123.920652 24.214314 -0.683700 0.000000 0.000000 0.000000 0.000000
1 1 1 1 2.000000 123.921637 24.214308 -0.157900 0.000000 0.000000 0.000000 0.000000
1 1 1 1 2.000000 123.922622 24.214302 -0.080200 0.000000 0.000000 0.000000 0.000000
1 1 1 1 2.000000 123.940346 24.214194 -3.505000 0.000000 0.000000 0.000000 0.000000
1 1 1 1 2.000000 123.941331 24.214188 -8.300000 0.000000 0.000000 0.000000 0.000000
1 1 1 1 2.000000 123.942315 24.214182 -18.300000 0.000000 0.000000 0.000000 0.000000
1 1 1 1 2.000000 123.943300 24.214176 -28.885000 0.000000 0.000000 0.000000 0.000000
1 1 1 1 2.000000 123.997457 24.213831 -26.649000 0.000000 0.000000 0.000000 0.000000
1 1 1 1 2.000000 123.998442 24.213824 -22.759000 0.000000 0.000000 0.000000 0.000000
1 1 1 1 2.000000 123.999426 24.213818 -18.920000 0.000000 0.000000 0.000000 0.000000
1 1 1 1 2.000000 124.000411 24.213811 -13.300000 0.000000 0.000000 0.000000 0.000000
1 1 1 1 2.000000 124.001396 24.213805 -9.516000 0.000000 0.000000 0.000000 0.000000
1 1 1 1 2.000000 124.002380 24.213798 -6.328600 0.000000 0.000000 0.000000 0.000000
1 1 1 1 2.000000 124.003365 24.213792 -3.946100 0.000000 0.000000 0.000000 0.000000
1 1 1 1 2.000000 124.004350 24.213785 -1.763000 0.000000 0.000000 0.000000 0.000000
1 1 1 1 2.000000 124.019119 24.213687 -3.346100 0.000000 0.000000 0.000000 0.000000
1 1 1 1 2.000000 124.020104 24.213681 -5.698000 0.000000 0.000000 0.000000 0.000000
1 1 1 1 2.000000 124.021089 24.213674 -6.826900 0.000000 0.000000 0.000000 0.000000
1 1 1 1 2.000000 124.022073 24.213667 -13.300000 0.000000 0.000000 0.000000 0.000000
1 1 1 1 2.000000 124.023058 24.213661 -18.300000 0.000000 0.000000 0.000000 0.000000
1 1 1 1 2.000000 124.024043 24.213654 -23.300000 0.000000 0.000000 0.000000 0.000000
1 1 1 1 2.000000 123.904904 24.215312 -28.300000 0.000000 0.000000 0.000000 0.000000
1 1 1 1 2.000000 123.905888 24.215306 -24.173000 0.000000 0.000000 0.000000 0.000000
1 1 1 1 2.000000 123.906873 24.215300 -21.300000 0.000000 0.000000 0.000000 0.000000
1 1 1 1 2.000000 123.907858 24.215294 -19.300000 0.000000 0.000000 0.000000 0.000000
1 1 1 1 2.000000 123.908842 24.215288 -18.300000 0.000000 0.000000 0.000000 0.000000
1 1 1 1 2.000000 123.909827 24.215282 -9.132000 0.000000 0.000000 0.000000 0.000000
1 1 1 1 2.000000 123.910812 24.215276 -3.248500 0.000000 0.000000 0.000000 0.000000
1 1 1 1 2.000000 123.917705 24.215235 -0.300000 0.000000 0.000000 0.000000 0.000000
1 1 1 1 2.000000 123.918689 24.215229 -0.300000 0.000000 0.000000 0.000000 0.000000
1 1 1 1 2.000000 123.919674 24.215223 -0.757500 0.000000 0.000000 0.000000 0.000000
1 1 1 1 2.000000 123.920659 24.215217 -0.291700 0.000000 0.000000 0.000000 0.000000
1 1 1 1 2.000000 123.940353 24.215097 -3.634200 0.000000 0.000000 0.000000 0.000000
1 1 1 1 2.000000 123.941337 24.215091 -8.300000 0.000000 0.000000 0.000000 0.000000
1 1 1 1 2.000000 123.942322 24.215085 -17.650000 0.000000 0.000000 0.000000 0.000000
1 1 1 1 2.000000 123.943307 24.215079 -28.300000 0.000000 0.000000 0.000000 0.000000
1 1 1 1 2.000000 123.996479 24.214740 -28.300000 0.000000 0.000000 0.000000 0.000000
1 1 1 1 2.000000 123.997464 24.214734 -23.300000 0.000000 0.000000 0.000000 0.000000
1 1 1 1 2.000000 123.998449 24.214727 -20.064000 0.000000 0.000000 0.000000 0.000000
1 1 1 1 2.000000 123.999433 24.214721 -16.008000 0.000000 0.000000 0.000000 0.000000
1 1 1 1 2.000000 124.000418 24.214714 -10.179000 0.000000 0.000000 0.000000 0.000000
1 1 1 1 2.000000 124.001403 24.214708 -6.178300 0.000000 0.000000 0.000000 0.000000
1 1 1 1 2.000000 124.002387 24.214701 -4.685300 0.000000 0.000000 0.000000 0.000000
1 1 1 1 2.000000 124.011249 24.214643 -0.449800 0.000000 0.000000 0.000000 0.000000
1 1 1 1 2.000000 124.012234 24.214636 -0.308300 0.000000 0.000000 0.000000 0.000000
1 1 1 1 2.000000 124.013219 24.214630 -0.480200 0.000000 0.000000 0.000000 0.000000
1 1 1 1 2.000000 124.014203 24.214623 -0.291700 0.000000 0.000000 0.000000 0.000000
1 1 1 1 2.000000 124.020111 24.214584 -1.914200 0.000000 0.000000 0.000000 0.000000
1 1 1 1 2.000000 124.021096 24.214577 -5.578600 0.000000 0.000000 0.000000 0.000000
1 1 1 1 2.000000 124.022081 24.214570 -6.619300 0.000000 0.000000 0.000000 0.000000
1 1 1 1 2.000000 124.023065 24.214564 -13.300000 0.000000 0.000000 0.000000 0.000000
1 1 1 1 2.000000 124.024050 24.214557 -18.300000 0.000000 0.000000 0.000000 0.000000
1 1 1 1 2.000000 124.025035 24.214551 -26.633000 0.000000 0.000000 0.000000 0.000000
1 1 1 1 2.000000 123.904910 24.216215 -25.550000 0.000000 0.000000 0.000000 0.000000
1 1 1 1 2.000000 123.905895 24.216209 -22.721000 0.000000 0.000000 0.000000 0.000000
1 1 1 1 2.000000 123.906879 24.216203 -19.300000 0.000000 0.000000 0.000000 0.000000
1 1 1 1 2.000000 123.907864 24.216197 -18.300000 0.000000 0.000000 0.000000 0.000000
1 1 1 1 2.000000 123.908849 24.216191 -11.286000 0.000000 0.000000 0.000000 0.000000
1 1 1 1 2.000000 123.909834 24.216185 -3.309700 0.000000 0.000000 0.000000 0.000000
1 1 1 1 2.000000 123.914757 24.216156 -0.635000 0.000000 0.000000 0.000000 0.000000
1 1 1 1 2.000000 123.917711 24.216138 -0.300000 0.000000 0.000000 0.000000 0.000000
1 1 1 1 2.000000 123.918696 24.216132 -0.300000 0.000000 0.000000 0.000000 0.000000
1 1 1 1 2.000000 123.919681 24.216126 -0.534100 0.000000 0.000000 0.000000 0.000000
1 1 1 1 2.000000 123.940359 24.216000 -1.717500 0.000000 0.000000 0.000000 0.000000
1 1 1 1 2.000000 123.941344 24.215994 -9.337000 0.000000 0.000000 0.000000 0.000000
1 1 1 1 2.000000 123.942329 24.215988 -18.300000 0.000000 0.000000 0.000000 0.000000
1 1 1 1 2.000000 123.943313 24.215982 -28.300000 0.000000 0.000000 0.000000 0.000000
1 1 1 1 2.000000 123.996486 24.215643 -25.711000 0.000000 0.000000 0.000000 0.000000
1 1 1 1 2.000000 123.997471 24.215637 -21.765000 0.000000 0.000000 0.000000 0.000000
1 1 1 1 2.000000 123.998456 24.215630 -18.300000 0.000000 0.000000 0.000000 0.000000
1 1 1 1 2.000000 123.999440 24.215624 -11.302000 0.000000 0.000000 0.000000 0.000000
1 1 1 1 2.000000 124.000425 24.215617 -6.329000 0.000000 0.000000 0.000000 0.000000
1 1 1 1 2.000000 124.001410 24.215611 -4.685300 0.000000 0.000000 0.000000 0.000000
1 1 1 1 2.000000 124.005348 24.215585 -0.154800 0.000000 0.000000 0.000000 0.000000
1 1 1 1 2.000000 124.006333 24.215578 -0.664400 0.000000 0.000000 0.000000 0.000000
1 1 1 1 2.000000 124.007318 24.215572 -0.664400 0.000000 0.000000 0.000000 0.000000
1 1 1 1 2.000000 124.008302 24.215565 -0.470000 0.000000 0.000000 0.000000 0.000000
1 1 1 1 2.000000 124.009287 24.215559 -0.157100 0.000000 0.000000 0.000000 0.000000
1 1 1 1 2.000000 124.010272 24.215552 -0.664400 0.000000 0.000000 0.000000 0.000000
1 1 1 1 2.000000 124.011256 24.215546 -0.664400 0.000000 0.000000 0.000000 0.000000
1 1 1 1 2.000000 124.012241 24.215539 -0.534100 0.000000 0.000000 0.000000 0.000000
1 1 1 1 2.000000 124.013226 24.215533 -0.664400 0.000000 0.000000 0.000000 0.000000
1 1 1 1 2.000000 124.014210 24.215526 -0.664400 0.000000 0.000000 0.000000 0.000000
1 1 1 1 2.000000 124.015195 24.215520 -0.664400 0.000000 0.000000 0.000000 0.000000
1 1 1 1 2.000000 124.016180 24.215513 -0.185100 0.000000 0.000000 0.000000 0.000000
1 1 1 1 2.000000 124.021103 24.215480 -1.902900 0.000000 0.000000 0.000000 0.000000
1 1 1 1 2.000000 124.022088 24.215473 -5.104500 0.000000 0.000000 0.000000 0.000000
1 1 1 1 2.000000 124.023072 24.215467 -7.323800 0.000000 0.000000 0.000000 0.000000
1 1 1 1 2.000000 124.024057 24.215460 -13.300000 0.000000 0.000000 0.000000 0.000000
1 1 1 1 2.000000 124.025042 24.215454 -18.300000 0.000000 0.000000 0.000000 0.000000
1 1 1 1 2.000000 124.026026 24.215447 -23.300000 0.000000 0.000000 0.000000 0.000000
1 1 1 1 2.000000 124.027011 24.215440 -28.300000 0.000000 0.000000 0.000000 0.000000
1 1 1 1 2.000000 123.903932 24.217124 -27.432000 0.000000 0.000000 0.000000 0.000000
1 1 1 1 2.000000 123.904916 24.217118 -23.300000 0.000000 0.000000 0.000000 0.000000
1 1 1 1 2.000000 123.905901 24.217112 -20.498000 0.000000 0.000000 0.000000 0.000000
1 1 1 1 2.000000 123.906886 24.217106 -18.300000 0.000000 0.000000 0.000000 0.000000
1 1 1 1 2.000000 123.907871 24.217100 -12.641000 0.000000 0.000000 0.000000 0.000000
1 1 1 1 2.000000 123.908855 24.217094 -5.800000 0.000000 0.000000 0.000000 0.000000
1 1 1 1 2.000000 123.915748 24.217053 -0.300000 0.000000 0.000000 0.000000 0.000000
1 1 1 1 2.000000 123.916733 24.217047 -0.391400 0.000000 0.000000 0.000000 0.000000
1 1 1 1 2.000000 123.917718 24.217041 -0.430400 0.000000 0.000000 0.000000 0.000000
1 1 1 1 2.000000 123.918702 24.217035 -0.294600 0.000000 0.000000 0.000000 0.000000
1 1 1 1 2.000000 123.919687 24.217029 -0.092900 0.000000 0.000000 0.000000 0.000000
1 1 1 1 2.000000 123.941351 24.216897 -10.800000 0.000000 0.000000 0.000000 0.000000
1 1 1 1 2.000000 123.942335 24.216891 -22.039000 0.000000 0.000000 0.000000 0.000000
1 1 1 1 2.000000 123.995509 24.216553 -28.300000 0.000000 0.000000 0.000000 0.000000
1 1 1 1 2.000000 123.996493 24.216546 -23.300000 0.000000 0.000000 0.000000 0.000000
1 1 1 1 2.000000 123.997478 24.216540 -18.300000 0.000000 0.000000 0.000000 0.000000
1 1 1 1 2.000000 123.998463 24.216533 -13.300000 0.000000 0.000000 0.000000 0.000000
1 1 1 1 2.000000 123.999447 24.216527 -6.587200 0.000000 0.000000 0.000000 0.000000
1 1 1 1 2.000000 124.000432 24.216520 -5.131000 0.000000 0.000000 0.000000 0.000000
1 1 1 1 2.000000 124.001417 24.216514 -0.635100 0.000000 0.000000 0.000000 0.000000
1 1 1 1 2.000000 124.004371 24.216494 -0.513800 0.000000 0.000000 0.000000 0.000000
1 1 1 1 2.000000 124.005355 24.216488 -0.664400 0.000000 0.000000 0.000000 0.000000
1 1 1 1 2.000000 124.006340 24.216481 -0.664400 0.000000 0.000000 0.000000 0.000000
1 1 1 1 2.000000 124.007325 24.216475 -0.599200 0.000000 0.000000 0.000000 0.000000
1 1 1 1 2.000000 124.008310 24.216468 -0.534100 0.000000 0.000000 0.000000 0.000000
1 1 1 1 2.000000 124.009294 24.216462 -0.534100 0.000000 0.000000 0.000000 0.000000
1 1 1 1 2.000000 124.010279 24.216455 -0.534100 0.000000 0.000000 0.000000 0.000000
1 1 1 1 2.000000 124.011264 24.216449 -0.664400 0.000000 0.000000 0.000000 0.000000
1 1 1 1 2.000000 124.012248 24.216442 -0.534100 0.000000 0.000000 0.000000 0.000000
1 1 1 1 2.000000 124.013233 24.216436 -0.664400 0.000000 0.000000 0.000000 0.000000
1 1 1 1 2.000000 124.014218 24.216429 -0.664400 0.000000 0.000000 0.000000 0.000000
1 1 1 1 2.000000 124.015202 24.216423 -0.730700 0.000000 0.000000 0.000000 0.000000
1 1 1 1 2.000000 124.016187 24.216416 -0.664400 0.000000 0.000000 0.000000 0.000000
1 1 1 1 2.000000 124.017172 24.216409 -0.776800 0.000000 0.000000 0.000000 0.000000
1 1 1 1 2.000000 124.022095 24.216376 -0.148200 0.000000 0.000000 0.000000 0.000000
1 1 1 1 2.000000 124.023080 24.216370 -5.728100 0.000000 0.000000 0.000000 0.000000
1 1 1 1 2.000000 124.024064 24.216363 -8.300000 0.000000 0.000000 0.000000 0.000000
1 1 1 1 2.000000 124.025049 24.216357 -13.300000 0.000000 0.000000 0.000000 0.000000
1 1 1 1 2.000000 124.026034 24.216350 -18.300000 0.000000 0.000000 0.000000 0.000000
1 1 1 1 2.000000 124.027018 24.216343 -20.703000 0.000000 0.000000 0.000000 0.000000
1 1 1 1 2.000000 124.028003 24.216337 -24.550000 0.000000 0.000000 0.000000 0.000000
1 1 1 1 2.000000 123.902953 24.218033 -28.713000 0.000000 0.000000 0.000000 0.000000
1 1 1 1 2.000000 123.903938 24.218027 -24.775000 0.000000 0.000000 0.000000 0.000000
1 1 1 1 2.000000 123.904923 24.218021 -21.806000 0.000000 0.000000 0.000000 0.000000
1 1 1 1 2.000000 123.905908 24.218015 -18.300000 0.000000 0.000000 0.000000 0.000000
1 1 1 1 2.000000 123.906892 24.218009 -13.705000 0.000000 0.000000 0.000000 0.000000
1 1 1 1 2.000000 123.907877 24.218003 -8.300000 0.000000 0.000000 0.000000 0.000000
1 1 1 1 2.000000 123.914770 24.217962 -0.391400 0.000000 0.000000 0.000000 0.000000
1 1 1 1 2.000000 123.915755 24.217956 -0.395200 0.000000 0.000000 0.000000 0.000000
1 1 1 1 2.000000 123.917724 24.217944 -0.046800 0.000000 0.000000 0.000000 0.000000
1 1 1 1 2.000000 123.918709 24.217938 -0.046800 0.000000 0.000000 0.000000 0.000000
1 1 1 1 2.000000 123.941357 24.217800 -8.300000 0.000000 0.000000 0.000000 0.000000
1 1 1 1 2.000000 123.942342 24.217794 -18.938000 0.000000 0.000000 0.000000 0.000000
1 1 1 1 2.000000 123.943327 24.217788 -28.300000 0.000000 0.000000 0.000000 0.000000
1 1 1 1 2.000000 123.995516 24.217456 -24.817000 0.000000 0.000000 0.000000 0.000000
1 1 1 1 2.000000 123.996500 24.217449 -20.421000 0.000000 0.000000 0.000000 0.000000
1 1 1 1 2.000000 123.997485 24.217443 -14.337000 0.000000 0.000000 0.000000 0.000000
1 1 1 1 2.000000 123.998470 24.217436 -8.300000 0.000000 0.000000 0.000000 0.000000
1 1 1 1 2.000000 123.999454 24.217430 -5.698000 0.000000 0.000000 0.000000 0.000000
1 1 1 1 2.000000 124.000439 24.217423 -0.040700 0.000000 0.000000 0.000000 0.000000
1 1 1 1 2.000000 124.003393 24.217404 -0.534100 0.000000 0.000000 0.000000 0.000000
1 1 1 1 2.000000 124.004378 24.217397 -0.664400 0.000000 0.000000 0.000000 0.000000
1 1 1 1 2.000000 124.005363 24.217391 -0.534100 0.000000 0.000000 0.000000 0.000000
1 1 1 1 2.000000 124.006347 24.217384 -0.664400 0.000000 0.000000 0.000000 0.000000
1 1 1 1 2.000000 124.007332 24.217378 -0.470000 0.000000 0.000000 0.000000 0.000000
1 1 1 1 2.000000 124.008317 24.217371 -0.534100 0.000000 0.000000 0.000000 0.000000
1 1 1 1 2.000000 124.009301 24.217365 -0.534100 0.000000 0.000000 0.000000 0.000000
1 1 1 1 2.000000 124.010286 24.217358 -0.534100 0.000000 0.000000 0.000000 0.000000
1 1 1 1 2.000000 124.011271 24.217352 -0.534100 0.000000 0.000000 0.000000 0.000000
1 1 1 1 2.000000 124.012255 24.217345 -0.534100 0.000000 0.000000 0.000000 0.000000
1 1 1 1 2.000000 124.013240 24.217339 -0.534100 0.000000 0.000000 0.000000 0.000000
1 1 1 1 2.000000 124.014225 24.217332 -0.534100 0.000000 0.000000 0.000000 0.000000
1 1 1 1 2.000000 124.015209 24.217326 -0.534100 0.000000 0.000000 0.000000 0.000000
1 1 1 1 2.000000 124.016194 24.217319 -0.664400 0.000000 0.000000 0.000000 0.000000
1 1 1 1 2.000000 124.017179 24.217313 -0.664400 0.000000 0.000000 0.000000 0.000000
1 1 1 1 2.000000 124.018163 24.217306 -0.513800 0.000000 0.000000 0.000000 0.000000
1 1 1 1 2.000000 124.023087 24.217273 -0.485000 0.000000 0.000000 0.000000 0.000000
1 1 1 1 2.000000 124.024072 24.217266 -5.698000 0.000000 0.000000 0.000000 0.000000
1 1 1 1 2.000000 124.025056 24.217260 -6.994000 0.000000 0.000000 0.000000 0.000000
1 1 1 1 2.000000 124.026041 24.217253 -11.406000 0.000000 0.000000 0.000000 0.000000
1 1 1 1 2.000000 124.027026 24.217246 -14.550000 0.000000 0.000000 0.000000 0.000000
1 1 1 1 2.000000 124.028010 24.217240 -18.810000 0.000000 0.000000 0.000000 0.000000
1 1 1 1 2.000000 124.028995 24.217233 -23.300000 0.000000 0.000000 0.000000 0.000000
1 1 1 1 2.000000 123.902960 24.218936 -28.036000 0.000000 0.000000 0.000000 0.000000
1 1 1 1 2.000000 123.903944 24.218930 -23.300000 0.000000 0.000000 0.000000 0.000000
1 1 1 1 2.000000 123.904929 24.218924 -18.616000 0.000000 0.000000 0.000000 0.000000
1 1 1 1 2.000000 123.905914 24.218918 -14.698000 0.000000 0.000000 0.000000 0.000000
1 1 1 1 2.000000 123.906899 24.218912 -8.977000 0.000000 0.000000 0.000000 0.000000
1 1 1 1 2.000000 123.907883 24.218906 -3.707000 0.000000 0.000000 0.000000 0.000000
1 1 1 1 2.000000 123.911822 24.218883 -0.158600 0.000000 0.000000 0.000000 0.000000
1 1 1 1 2.000000 123.912807 24.218877 -0.782400 0.000000 0.000000 0.000000 0.000000
1 1 1 1 2.000000 123.913792 24.218871 -0.542400 0.000000 0.000000 0.000000 0.000000
1 1 1 1 2.000000 123.914776 24.218865 -0.297400 0.000000 0.000000 0.000000 0.000000
1 1 1 1 2.000000 123.915761 24.218859 -0.014800 0.000000 0.000000 0.000000 0.000000
1 1 1 1 2.000000 123.916746 24.218853 -0.395200 0.000000 0.000000 0.000000 0.000000
1 1 1 1 2.000000 123.918715 24.218841 -0.157500 0.000000 0.000000 0.000000 0.000000
1 1 1 1 2.000000 123.941364 24.218703 -6.762400 0.000000 0.000000 0.000000 0.000000
1 1 1 1 2.000000 123.942349 24.218697 -17.050000 0.000000 0.000000 0.000000 0.000000
1 1 1 1 2.000000 123.943333 24.218691 -23.300000 0.000000 0.000000 0.000000 0.000000
1 1 1 1 2.000000 123.944318 24.218685 -28.300000 0.000000 0.000000 0.000000 0.000000
1 1 1 1 2.000000 123.995523 24.218359 -23.610000 0.000000 0.000000 0.000000 0.000000
1 1 1 1 2.000000 123.996507 24.218352 -18.300000 0.000000 0.000000 0.000000 0.000000
1 1 1 1 2.000000 123.997492 24.218346 -10.587000 0.000000 0.000000 0.000000 0.000000
1 1 1 1 2.000000 123.998477 24.218339 -5.880600 0.000000 0.000000 0.000000 0.000000
1 1 1 1 2.000000 123.999461 24.218333 -3.202400 0.000000 0.000000 0.000000 0.000000
1 1 1 1 2.000000 124.002416 24.218314 -0.406000 0.000000 0.000000 0.000000 0.000000
1 1 1 1 2.000000 124.003400 24.218307 -0.534100 0.000000 0.000000 0.000000 0.000000
1 1 1 1 2.000000 124.004385 24.218301 -0.534100 0.000000 0.000000 0.000000 0.000000
1 1 1 1 2.000000 124.005370 24.218294 -0.331200 0.000000 0.000000 0.000000 0.000000
1 1 1 1 2.000000 124.006354 24.218288 -0.263900 0.000000 0.000000 0.000000 0.000000
1 1 1 1 2.000000 124.007339 24.218281 -0.263900 0.000000 0.000000 0.000000 0.000000
1 1 1 1 2.000000 124.008324 24.218275 -0.147200 0.000000 0.000000 0.000000 0.000000
1 1 1 1 2.000000 124.009308 24.218268 -0.156100 0.000000 0.000000 0.000000 0.000000
1 1 1 1 2.000000 124.010293 24.218261 -0.394200 0.000000 0.000000 0.000000 0.000000
1 1 1 1 2.000000 124.011278 24.218255 -0.534100 0.000000 0.000000 0.000000 0.000000
1 1 1 1 2.000000 124.012262 24.218248 -0.749500 0.000000 0.000000 0.000000 0.000000
1 1 1 1 2.000000 124.013247 24.218242 -0.749500 0.000000 0.000000 0.000000 0.000000
1 1 1 1 2.000000 124.014232 24.218235 -0.599200 0.000000 0.000000 0.000000 0.000000
1 1 1 1 2.000000 124.015217 24.218229 -0.599200 0.000000 0.000000 0.000000 0.000000
1 1 1 1 2.000000 124.016201 24.218222 -0.534100 0.000000 0.000000 0.000000 0.000000
1 1 1 1 2.000000 124.017186 24.218216 -0.534100 0.000000 0.000000 0.000000 0.000000
1 1 1 1 2.000000 124.018171 24.218209 -0.720600 0.000000 0.000000 0.000000 0.000000
1 1 1 1 2.000000 124.019155 24.218202 -0.470000 0.000000 0.000000 0.000000 0.000000
1 1 1 1 2.000000 124.024079 24.218169 -0.179400 0.000000 0.000000 0.000000 0.000000
1 1 1 1 2.000000 124.025063 24.218163 -5.728100 0.000000 0.000000 0.000000 0.000000
1 1 1 1 2.000000 124.026048 24.218156 -6.845700 0.000000 0.000000 0.000000 0.000000
1 1 1 1 2.000000 124.027033 24.218149 -8.300000 0.000000 0.000000 0.000000 0.000000
1 1 1 1 2.000000 124.028018 24.218143 -12.263000 0.000000 0.000000 0.000000 0.000000
1 1 1 1 2.000000 124.029002 24.218136 -17.050000 0.000000 0.000000 0.000000 0.000000
1 1 1 1 2.000000 124.029987 24.218130 -21.401000 0.000000 0.000000 0.000000 0.000000
1 1 1 1 2.000000 124.030972 24.218123 -27.050000 0.000000 0.000000 0.000000 0.000000
1 1 1 1 2.000000 123.902966 24.219839 -26.356000 0.000000 0.000000 0.000000 0.000000
1 1 1 1 2.000000 123.903951 24.219833 -22.670000 0.000000 0.000000 0.000000 0.000000
1 1 1 1 2.000000 123.904936 24.219827 -18.300000 0.000000 0.000000 0.000000 0.000000
1 1 1 1 2.000000 123.905920 24.219821 -14.785000 0.000000 0.000000 0.000000 0.000000
1 1 1 1 2.000000 123.906905 24.219815 -8.300000 0.000000 0.000000 0.000000 0.000000
1 1 1 1 2.000000 123.907890 24.219810 -4.781600 0.000000 0.000000 0.000000 0.000000
1 1 1 1 2.000000 123.912813 24.219780 -0.144200 0.000000 0.000000 0.000000 0.000000
1 1 1 1 2.000000 123.913798 24.219774 -0.340700 0.000000 0.000000 0.000000 0.000000
1 1 1 1 2.000000 123.916752 24.219756 -0.016400 0.000000 0.000000 0.000000 0.000000
1 1 1 1 2.000000 123.917737 24.219751 -0.016400 0.000000 0.000000 0.000000 0.000000
1 1 1 1 2.000000 123.918722 24.219745 -0.226500 0.000000 0.000000 0.000000 0.000000
1 1 1 1 2.000000 123.919707 24.219739 -0.291700 0.000000 0.000000 0.000000 0.000000
1 1 1 1 2.000000 123.923645 24.219715 -0.086200 0.000000 0.000000 0.000000 0.000000
1 1 1 1 2.000000 123.938416 24.219624 -0.029700 0.000000 0.000000 0.000000 0.000000
1 1 1 1 2.000000 123.942355 24.219600 -12.263000 0.000000 0.000000 0.000000 0.000000
1 1 1 1 2.000000 123.943340 24.219594 -19.734000 0.000000 0.000000 0.000000 0.000000
1 1 1 1 2.000000 123.944325 24.219588 -25.968000 0.000000 0.000000 0.000000 0.000000
1 1 1 1 2.000000 123.995530 24.219262 -23.300000 0.000000 0.000000 0.000000 0.000000
1 1 1 1 2.000000 123.996514 24.219255 -16.030000 0.000000 0.000000 0.000000 0.000000
1 1 1 1 2.000000 123.997499 24.219249 -7.290900 0.000000 0.000000 0.000000 0.000000
1 1 1 1 2.000000 123.998484 24.219242 -5.375300 0.000000 0.000000 0.000000 0.000000
1 1 1 1 2.000000 124.002423 24.219217 -0.406000 0.000000 0.000000 0.000000 0.000000
1 1 1 1 2.000000 124.003407 24.219210 -0.625100 0.000000 0.000000 0.000000 0.000000
1 1 1 1 2.000000 124.004392 24.219204 -0.151700 0.000000 0.000000 0.000000 0.000000
1 1 1 1 2.000000 124.005377 24.219197 -0.032100 0.000000 0.000000 0.000000 0.000000
1 1 1 1 2.000000 124.006361 24.219191 -0.310300 0.000000 0.000000 0.000000 0.000000
1 1 1 1 2.000000 124.007346 24.219184 -0.254300 0.000000 0.000000 0.000000 0.000000
1 1 1 1 2.000000 124.008331 24.219178 -0.195900 0.000000 0.000000 0.000000 0.000000
1 1 1 1 2.000000 124.009316 24.219171 -0.147200 0.000000 0.000000 0.000000 0.000000
1 1 1 1 2.000000 124.010300 24.219165 -0.147200 0.000000 0.000000 0.000000 0.000000
1 1 1 1 2.000000 124.011285 24.219158 -0.383300 0.000000 0.000000 0.000000 0.000000
1 1 1 1 2.000000 124.012270 24.219151 -0.382400 0.000000 0.000000 0.000000 0.000000
1 1 1 1 2.000000 124.013254 24.219145 -0.625100 0.000000 0.000000 0.000000 0.000000
1 1 1 1 2.000000 124.014239 24.219138 -0.749500 0.000000 0.000000 0.000000 0.000000
1 1 1 1 2.000000 124.015224 24.219132 -0.749500 0.000000 0.000000 0.000000 0.000000
1 1 1 1 2.000000 124.016208 24.219125 -0.641800 0.000000 0.000000 0.000000 0.000000
1 1 1 1 2.000000 124.017193 24.219119 -0.644700 0.000000 0.000000 0.000000 0.000000
1 1 1 1 2.000000 124.018178 24.219112 -0.664400 0.000000 0.000000 0.000000 0.000000
1 1 1 1 2.000000 124.019163 24.219105 -0.707000 0.000000 0.000000 0.000000 0.000000
1 1 1 1 2.000000 124.020147 24.219099 -0.534100 0.000000 0.000000 0.000000 0.000000
1 1 1 1 2.000000 124.021132 24.219092 -0.493500 0.000000 0.000000 0.000000 0.000000
1 1 1 1 2.000000 124.025071 24.219066 -0.086200 0.000000 0.000000 0.000000 0.000000
1 1 1 1 2.000000 124.026055 24.219059 -5.548500 0.000000 0.000000 0.000000 0.000000
1 1 1 1 2.000000 124.027040 24.219053 -6.889200 0.000000 0.000000 0.000000 0.000000
1 1 1 1 2.000000 124.028025 24.219046 -6.770900 0.000000 0.000000 0.000000 0.000000
1 1 1 1 2.000000 124.029009 24.219039 -8.300000 0.000000 0.000000 0.000000 0.000000
1 1 1 1 2.000000 124.029994 24.219033 -13.300000 0.000000 0.000000 0.000000 0.000000
1 1 1 1 2.000000 124.030979 24.219026 -18.300000 0.000000 0.000000 0.000000 0.000000
1 1 1 1 2.000000 124.031964 24.219019 -21.825000 0.000000 0.000000 0.000000 0.000000
1 1 1 1 2.000000 124.032948 24.219013 -27.050000 0.000000 0.000000 0.000000 0.000000
1 1 1 1 2.000000 123.901988 24.220748 -28.300000 0.000000 0.000000 0.000000 0.000000
1 1 1 1 2.000000 123.902972 24.220742 -24.826000 0.000000 0.000000 0.000000 0.000000
1 1 1 1 2.000000 123.903957 24.220736 -22.052000 0.000000 0.000000 0.000000 0.000000
1 1 1 1 2.000000 123.904942 24.220730 -18.361000 0.000000 0.000000 0.000000 0.000000
1 1 1 1 2.000000 123.905927 24.220724 -13.677000 0.000000 0.000000 0.000000 0.000000
1 1 1 1 2.000000 123.906911 24.220718 -8.300000 0.000000 0.000000 0.000000 0.000000
1 1 1 1 2.000000 123.907896 24.220713 -2.945200 0.000000 0.000000 0.000000 0.000000
1 1 1 1 2.000000 123.912820 24.220683 -0.297400 0.000000 0.000000 0.000000 0.000000
1 1 1 1 2.000000 123.913805 24.220677 -0.018900 0.000000 0.000000 0.000000 0.000000
1 1 1 1 2.000000 123.914789 24.220671 -1.126200 0.000000 0.000000 0.000000 0.000000
1 1 1 1 2.000000 123.915774 24.220665 -0.305000 0.000000 0.000000 0.000000 0.000000
1 1 1 1 2.000000 123.916759 24.220660 -0.089100 0.000000 0.000000 0.000000 0.000000
1 1 1 1 2.000000 123.917744 24.220654 -0.506500 0.000000 0.000000 0.000000 0.000000
1 1 1 1 2.000000 123.920698 24.220636 -0.361900 0.000000 0.000000 0.000000 0.000000
1 1 1 1 2.000000 123.923652 24.220618 -0.157900 0.000000 0.000000 0.000000 0.000000
1 1 1 1 2.000000 123.924637 24.220612 -0.033200 0.000000 0.000000 0.000000 0.000000
1 1 1 1 2.000000 123.935469 24.220546 -0.151700 0.000000 0.000000 0.000000 0.000000
1 1 1 1 2.000000 123.936454 24.220540 -0.280000 0.000000 0.000000 0.000000 0.000000
1 1 1 1 2.000000 123.937438 24.220534 -0.090700 0.000000 0.000000 0.000000 0.000000
1 1 1 1 2.000000 123.942362 24.220503 -7.262900 0.000000 0.000000 0.000000 0.000000
1 1 1 1 2.000000 123.943347 24.220497 -13.300000 0.000000 0.000000 0.000000 0.000000
1 1 1 1 2.000000 123.944331 24.220491 -23.300000 0.000000 0.000000 0.000000 0.000000
1 1 1 1 2.000000 123.945316 24.220485 -28.300000 0.000000 0.000000 0.000000 0.000000
1 1 1 1 2.000000 123.994552 24.220171 -28.978000 0.000000 0.000000 0.000000 0.000000
1 1 1 1 2.000000 123.995537 24.220165 -22.429000 0.000000 0.000000 0.000000 0.000000
1 1 1 1 2.000000 123.996521 24.220158 -14.523000 0.000000 0.000000 0.000000 0.000000
1 1 1 1 2.000000 123.997506 24.220152 -6.255200 0.000000 0.000000 0.000000 0.000000
1 1 1 1 2.000000 123.998491 24.220146 -3.490200 0.000000 0.000000 0.000000 0.000000
1 1 1 1 2.000000 124.001445 24.220126 -0.331200 0.000000 0.000000 0.000000 0.000000
1 1 1 1 2.000000 124.002430 24.220120 -0.625100 0.000000 0.000000 0.000000 0.000000
1 1 1 1 2.000000 124.003414 24.220113 -0.382400 0.000000 0.000000 0.000000 0.000000
1 1 1 1 2.000000 124.004399 24.220107 -0.140700 0.000000 0.000000 0.000000 0.000000
1 1 1 1 2.000000 124.005384 24.220100 -0.071600 0.000000 0.000000 0.000000 0.000000
1 1 1 1 2.000000 124.006369 24.220094 -0.222900 0.000000 0.000000 0.000000 0.000000
1 1 1 1 2.000000 124.007353 24.220087 -0.025100 0.000000 0.000000 0.000000 0.000000
1 1 1 1 2.000000 124.008338 24.220081 -0.420200 0.000000 0.000000 0.000000 0.000000
1 1 1 1 2.000000 124.009323 24.220074 -0.244600 0.000000 0.000000 0.000000 0.000000
1 1 1 1 2.000000 124.010307 24.220068 -0.508300 0.000000 0.000000 0.000000 0.000000
1 1 1 1 2.000000 124.011292 24.220061 -0.437100 0.000000 0.000000 0.000000 0.000000
1 1 1 1 2.000000 124.012277 24.220055 -0.470300 0.000000 0.000000 0.000000 0.000000
1 1 1 1 2.000000 124.013261 24.220048 -0.625100 0.000000 0.000000 0.000000 0.000000
1 1 1 1 2.000000 124.014246 24.220041 -0.625100 0.000000 0.000000 0.000000 0.000000
1 1 1 1 2.000000 124.015231 24.220035 -0.625100 0.000000 0.000000 0.000000 0.000000
1 1 1 1 2.000000 124.016216 24.220028 -0.749500 0.000000 0.000000 0.000000 0.000000
1 1 1 1 2.000000 124.017200 24.220022 -0.875900 0.000000 0.000000 0.000000 0.000000
1 1 1 1 2.000000 124.018185 24.220015 -0.749500 0.000000 0.000000 0.000000 0.000000
1 1 1 1 2.000000 124.019170 24.220009 -0.875900 0.000000 0.000000 0.000000 0.000000
1 1 1 1 2.000000 124.020154 24.220002 -1.004600 0.000000 0.000000 0.000000 0.000000
1 1 1 1 2.000000 124.021139 24.219995 -1.004600 0.000000 0.000000 0.000000 0.000000
1 1 1 1 2.000000 124.022124 24.219989 -0.639800 0.000000 0.000000 0.000000 0.000000
1 1 1 1 2.000000 124.027047 24.219956 -5.521600 0.000000 0.000000 0.000000 0.000000
1 1 1 1 2.000000 124.028032 24.219949 -6.845700 0.000000 0.000000 0.000000 0.000000
1 1 1 1 2.000000 124.029017 24.219942 -7.014100 0.000000 0.000000 0.000000 0.000000
1 1 1 1 2.000000 124.030001 24.219936 -6.898800 0.000000 0.000000 0.000000 0.000000
1 1 1 1 2.000000 124.030986 24.219929 -8.300000 0.000000 0.000000 0.000000 0.000000
1 1 1 1 2.000000 124.031971 24.219922 -13.300000 0.000000 0.000000 0.000000 0.000000
1 1 1 1 2.000000 124.032955 24.219916 -18.300000 0.000000 0.000000 0.000000 0.000000
1 1 1 1 2.000000 124.033940 24.219909 -21.779000 0.000000 0.000000 0.000000 0.000000
1 1 1 1 2.000000 124.034925 24.219902 -27.050000 0.000000 0.000000 0.000000 0.000000
1 1 1 1 2.000000 123.901994 24.221651 -28.300000 0.000000 0.000000 0.000000 0.000000
1 1 1 1 2.000000 123.902979 24.221645 -23.300000 0.000000 0.000000 0.000000 0.000000
1 1 1 1 2.000000 123.903964 24.221639 -18.300000 0.000000 0.000000 0.000000 0.000000
1 1 1 1 2.000000 123.904948 24.221633 -13.300000 0.000000 0.000000 0.000000 0.000000
1 1 1 1 2.000000 123.905933 24.221627 -8.050000 0.000000 0.000000 0.000000 0.000000
1 1 1 1 2.000000 123.906918 24.221622 -5.773500 0.000000 0.000000 0.000000 0.000000
1 1 1 1 2.000000 123.907903 24.221616 -3.928600 0.000000 0.000000 0.000000 0.000000
1 1 1 1 2.000000 123.912826 24.221586 -0.155500 0.000000 0.000000 0.000000 0.000000
1 1 1 1 2.000000 123.913811 24.221580 -1.438800 0.000000 0.000000 0.000000 0.000000
1 1 1 1 2.000000 123.914796 24.221574 -2.114800 0.000000 0.000000 0.000000 0.000000
1 1 1 1 2.000000 123.915781 24.221569 -1.521200 0.000000 0.000000 0.000000 0.000000
1 1 1 1 2.000000 123.916765 24.221563 -0.978400 0.000000 0.000000 0.000000 0.000000
1 1 1 1 2.000000 123.917750 24.221557 -1.373200 0.000000 0.000000 0.000000 0.000000
1 1 1 1 2.000000 123.918735 24.221551 -0.297400 0.000000 0.000000 0.000000 0.000000
1 1 1 1 2.000000 123.919720 24.221545 -0.395200 0.000000 0.000000 0.000000 0.000000
1 1 1 1 2.000000 123.920704 24.221539 -0.340700 0.000000 0.000000 0.000000 0.000000
1 1 1 1 2.000000 123.921689 24.221533 -0.548700 0.000000 0.000000 0.000000 0.000000
1 1 1 1 2.000000 123.922674 24.221527 -0.563300 0.000000 0.000000 0.000000 0.000000
1 1 1 1 2.000000 123.923658 24.221521 -0.359000 0.000000 0.000000 0.000000 0.000000
1 1 1 1 2.000000 123.924643 24.221515 -0.029700 0.000000 0.000000 0.000000 0.000000
1 1 1 1 2.000000 123.935475 24.221449 -0.548700 0.000000 0.000000 0.000000 0.000000
1 1 1 1 2.000000 123.936460 24.221443 -0.641800 0.000000 0.000000 0.000000 0.000000
1 1 1 1 2.000000 123.938430 24.221431 -0.449800 0.000000 0.000000 0.000000 0.000000
1 1 1 1 2.000000 123.943353 24.221400 -8.300000 0.000000 0.000000 0.000000 0.000000
1 1 1 1 2.000000 123.944338 24.221394 -13.300000 0.000000 0.000000 0.000000 0.000000
1 1 1 1 2.000000 123.945323 24.221388 -18.300000 0.000000 0.000000 0.000000 0.000000
1 1 1 1 2.000000 123.946307 24.221382 -25.910000 0.000000 0.000000 0.000000 0.000000
1 1 1 1 2.000000 123.994559 24.221074 -28.925000 0.000000 0.000000 0.000000 0.000000
1 1 1 1 2.000000 123.995544 24.221068 -22.311000 0.000000 0.000000 0.000000 0.000000
1 1 1 1 2.000000 123.996528 24.221061 -13.300000 0.000000 0.000000 0.000000 0.000000
1 1 1 1 2.000000 123.997513 24.221055 -6.108200 0.000000 0.000000 0.000000 0.000000
1 1 1 1 2.000000 123.998498 24.221049 -1.148200 0.000000 0.000000 0.000000 0.000000
1 1 1 1 2.000000 124.001452 24.221029 -0.502800 0.000000 0.000000 0.000000 0.000000
1 1 1 1 2.000000 124.002437 24.221023 -0.502800 0.000000 0.000000 0.000000 0.000000
1 1 1 1 2.000000 124.003421 24.221016 -0.233800 0.000000 0.000000 0.000000 0.000000
1 1 1 1 2.000000 124.004406 24.221010 -0.025800 0.000000 0.000000 0.000000 0.000000
1 1 1 1 2.000000 124.012284 24.220958 -0.420200 0.000000 0.000000 0.000000 0.000000
1 1 1 1 2.000000 124.013269 24.220951 -0.566000 0.000000 0.000000 0.000000 0.000000
1 1 1 1 2.000000 124.014253 24.220944 -0.585700 0.000000 0.000000 0.000000 0.000000
1 1 1 1 2.000000 124.015238 24.220938 -0.605400 0.000000 0.000000 0.000000 0.000000
1 1 1 1 2.000000 124.016223 24.220931 -0.785600 0.000000 0.000000 0.000000 0.000000
1 1 1 1 2.000000 124.017207 24.220925 -0.812700 0.000000 0.000000 0.000000 0.000000
1 1 1 1 2.000000 124.018192 24.220918 -0.875900 0.000000 0.000000 0.000000 0.000000
1 1 1 1 2.000000 124.019177 24.220912 -0.749500 0.000000 0.000000 0.000000 0.000000
1 1 1 1 2.000000 124.020162 24.220905 -1.004600 0.000000 0.000000 0.000000 0.000000
1 1 1 1 2.000000 124.021146 24.220898 -0.875900 0.000000 0.000000 0.000000 0.000000
1 1 1 1 2.000000 124.022131 24.220892 -0.875900 0.000000 0.000000 0.000000 0.000000
1 1 1 1 2.000000 124.023116 24.220885 -0.323100 0.000000 0.000000 0.000000 0.000000
1 1 1 1 2.000000 124.027055 24.220859 -2.915100 0.000000 0.000000 0.000000 0.000000
1 1 1 1 2.000000 124.028039 24.220852 -4.792300 0.000000 0.000000 0.000000 0.000000
1 1 1 1 2.000000 124.029024 24.220845 -6.845700 0.000000 0.000000 0.000000 0.000000
1 1 1 1 2.000000 124.030009 24.220839 -7.037400 0.000000 0.000000 0.000000 0.000000
1 1 1 1 2.000000 124.030993 24.220832 -7.142200 0.000000 0.000000 0.000000 0.000000
1 1 1 1 2.000000 124.031978 24.220825 -7.465200 0.000000 0.000000 0.000000 0.000000
1 1 1 1 2.000000 124.032963 24.220819 -10.587000 0.000000 0.000000 0.000000 0.000000
1 1 1 1 2.000000 124.033947 24.220812 -14.337000 0.000000 0.000000 0.000000 0.000000
1 1 1 1 2.000000 124.034932 24.220805 -18.300000 0.000000 0.000000 0.000000 0.000000
1 1 1 1 2.000000 124.035917 24.220799 -21.770000 0.000000 0.000000 0.000000 0.000000
1 1 1 1 2.000000 124.036902 24.220792 -27.050000 0.000000 0.000000 0.000000 0.000000
1 1 1 1 2.000000 123.902985 24.222548 -25.745000 0.000000 0.000000 0.000000 0.000000
1 1 1 1 2.000000 123.903970 24.222542 -20.085000 0.000000 0.000000 0.000000 0.000000
1 1 1 1 2.000000 123.904955 24.222536 -13.300000 0.000000 0.000000 0.000000 0.000000
1 1 1 1 2.000000 123.905939 24.222531 -6.300000 0.000000 0.000000 0.000000 0.000000
1 1 1 1 2.000000 123.906924 24.222525 -5.368300 0.000000 0.000000 0.000000 0.000000
1 1 1 1 2.000000 123.907909 24.222519 -4.667800 0.000000 0.000000 0.000000 0.000000
1 1 1 1 2.000000 123.908894 24.222513 -4.362200 0.000000 0.000000 0.000000 0.000000
1 1 1 1 2.000000 123.912833 24.222489 -0.152300 0.000000 0.000000 0.000000 0.000000
1 1 1 1 2.000000 123.913818 24.222483 -2.228300 0.000000 0.000000 0.000000 0.000000
1 1 1 1 2.000000 123.914802 24.222478 -2.493300 0.000000 0.000000 0.000000 0.000000
1 1 1 1 2.000000 123.915787 24.222472 -2.300200 0.000000 0.000000 0.000000 0.000000
1 1 1 1 2.000000 123.916772 24.222466 -1.567200 0.000000 0.000000 0.000000 0.000000
1 1 1 1 2.000000 123.917757 24.222460 -1.563900 0.000000 0.000000 0.000000 0.000000
1 1 1 1 2.000000 123.918741 24.222454 -1.077500 0.000000 0.000000 0.000000 0.000000
1 1 1 1 2.000000 123.919726 24.222448 -2.412600 0.000000 0.000000 0.000000 0.000000
1 1 1 1 2.000000 123.920711 24.222442 -0.539500 0.000000 0.000000 0.000000 0.000000
1 1 1 1 2.000000 123.921696 24.222436 -0.500200 0.000000 0.000000 0.000000 0.000000
1 1 1 1 2.000000 123.922680 24.222430 -0.720600 0.000000 0.000000 0.000000 0.000000
1 1 1 1 2.000000 123.923665 24.222424 -0.426300 0.000000 0.000000 0.000000 0.000000
1 1 1 1 2.000000 123.924650 24.222418 -0.426300 0.000000 0.000000 0.000000 0.000000
1 1 1 1 2.000000 123.925635 24.222412 -0.426300 0.000000 0.000000 0.000000 0.000000
1 1 1 1 2.000000 123.926619 24.222406 -0.291700 0.000000 0.000000 0.000000 0.000000
1 1 1 1 2.000000 123.927604 24.222400 -0.159600 0.000000 0.000000 0.000000 0.000000
1 1 1 1 2.000000 123.928589 24.222394 -0.029700 0.000000 0.000000 0.000000 0.000000
1 1 1 1 2.000000 123.934497 24.222358 -0.635100 0.000000 0.000000 0.000000 0.000000
1 1 1 1 2.000000 123.935482 24.222352 -0.776800 0.000000 0.000000 0.000000 0.000000
1 1 1 1 2.000000 123.936467 24.222346 -1.060400 0.000000 0.000000 0.000000 0.000000
1 1 1 1 2.000000 123.937451 24.222340 -1.135600 0.000000 0.000000 0.000000 0.000000
1 1 1 1 2.000000 123.938436 24.222334 -0.449800 0.000000 0.000000 0.000000 0.000000
1 1 1 1 2.000000 123.939421 24.222328 -0.280000 0.000000 0.000000 0.000000 0.000000
1 1 1 1 2.000000 123.943360 24.222303 -1.122500 0.000000 0.000000 0.000000 0.000000
1 1 1 1 2.000000 123.944345 24.222297 -5.914000 0.000000 0.000000 0.000000 0.000000
1 1 1 1 2.000000 123.945329 24.222291 -10.800000 0.000000 0.000000 0.000000 0.000000
1 1 1 1 2.000000 123.946314 24.222285 -20.800000 0.000000 0.000000 0.000000 0.000000
1 1 1 1 2.000000 123.947299 24.222279 -28.300000 0.000000 0.000000 0.000000 0.000000
1 1 1 1 2.000000 123.994566 24.221977 -28.873000 0.000000 0.000000 0.000000 0.000000
1 1 1 1 2.000000 123.995551 24.221971 -22.091000 0.000000 0.000000 0.000000 0.000000
1 1 1 1 2.000000 123.996536 24.221965 -12.157000 0.000000 0.000000 0.000000 0.000000
1 1 1 1 2.000000 123.997520 24.221958 -5.667900 0.000000 0.000000 0.000000 0.000000
1 1 1 1 2.000000 124.000474 24.221939 -0.563900 0.000000 0.000000 0.000000 0.000000
1 1 1 1 2.000000 124.001459 24.221932 -0.502800 0.000000 0.000000 0.000000 0.000000
1 1 1 1 2.000000 124.002444 24.221926 -0.470300 0.000000 0.000000 0.000000 0.000000
1 1 1 1 2.000000 124.003429 24.221919 -0.118000 0.000000 0.000000 0.000000 0.000000
1 1 1 1 2.000000 124.015245 24.221841 -0.621400 0.000000 0.000000 0.000000 0.000000
1 1 1 1 2.000000 124.016230 24.221834 -0.821800 0.000000 0.000000 0.000000 0.000000
1 1 1 1 2.000000 124.017215 24.221828 -0.821800 0.000000 0.000000 0.000000 0.000000
1 1 1 1 2.000000 124.018199 24.221821 -0.942600 0.000000 0.000000 0.000000 0.000000
1 1 1 1 2.000000 124.019184 24.221815 -0.909200 0.000000 0.000000 0.000000 0.000000
1 1 1 1 2.000000 124.020169 24.221808 -0.875900 0.000000 0.000000 0.000000 0.000000
1 1 1 1 2.000000 124.021154 24.221801 -0.875900 0.000000 0.000000 0.000000 0.000000
1 1 1 1 2.000000 124.022138 24.221795 -0.875900 0.000000 0.000000 0.000000 0.000000
1 1 1 1 2.000000 124.023123 24.221788 -0.563900 0.000000 0.000000 0.000000 0.000000
1 1 1 1 2.000000 124.028047 24.221755 -3.202400 0.000000 0.000000 0.000000 0.000000
1 1 1 1 2.000000 124.029031 24.221748 -5.083800 0.000000 0.000000 0.000000 0.000000
1 1 1 1 2.000000 124.030016 24.221742 -6.550100 0.000000 0.000000 0.000000 0.000000
1 1 1 1 2.000000 124.031001 24.221735 -7.439600 0.000000 0.000000 0.000000 0.000000
1 1 1 1 2.000000 124.031985 24.221728 -7.142200 0.000000 0.000000 0.000000 0.000000
1 1 1 1 2.000000 124.032970 24.221722 -6.630100 0.000000 0.000000 0.000000 0.000000
1 1 1 1 2.000000 124.033955 24.221715 -8.300000 0.000000 0.000000 0.000000 0.000000
1 1 1 1 2.000000 124.034939 24.221708 -12.263000 0.000000 0.000000 0.000000 0.000000
1 1 1 1 2.000000 124.035924 24.221702 -15.255000 0.000000 0.000000 0.000000 0.000000
1 1 1 1 2.000000 124.036909 24.221695 -18.300000 0.000000 0.000000 0.000000 0.000000
1 1 1 1 2.000000 124.037894 24.221688 -23.300000 0.000000 0.000000 0.000000 0.000000
1 1 1 1 2.000000 124.038878 24.221682 -28.300000 0.000000 0.000000 0.000000 0.000000
1 1 1 1 2.000000 123.903976 24.223445 -28.300000 0.000000 0.000000 0.000000 0.000000
1 1 1 1 2.000000 123.904961 24.223439 -21.176000 0.000000 0.000000 0.000000 0.000000
1 1 1 1 2.000000 123.905946 24.223434 -17.050000 0.000000 0.000000 0.000000 0.000000
1 1 1 1 2.000000 123.906931 24.223428 -8.300000 0.000000 0.000000 0.000000 0.000000
1 1 1 1 2.000000 123.907915 24.223422 -9.550000 0.000000 0.000000 0.000000 0.000000
1 1 1 1 2.000000 123.908900 24.223416 -5.827500 0.000000 0.000000 0.000000 0.000000
1 1 1 1 2.000000 123.909885 24.223410 -5.582200 0.000000 0.000000 0.000000 0.000000
1 1 1 1 2.000000 123.913824 24.223387 -1.521200 0.000000 0.000000 0.000000 0.000000
1 1 1 1 2.000000 123.914809 24.223381 -2.264300 0.000000 0.000000 0.000000 0.000000
1 1 1 1 2.000000 123.915793 24.223375 -1.606500 0.000000 0.000000 0.000000 0.000000
1 1 1 1 2.000000 123.916778 24.223369 -3.610100 0.000000 0.000000 0.000000 0.000000
1 1 1 1 2.000000 123.917763 24.223363 -2.744700 0.000000 0.000000 0.000000 0.000000
1 1 1 1 2.000000 123.918748 24.223357 -1.225200 0.000000 0.000000 0.000000 0.000000
1 1 1 1 2.000000 123.919732 24.223351 -1.120800 0.000000 0.000000 0.000000 0.000000
1 1 1 1 2.000000 123.920717 24.223345 -1.817700 0.000000 0.000000 0.000000 0.000000
1 1 1 1 2.000000 123.921702 24.223339 -0.104200 0.000000 0.000000 0.000000 0.000000
1 1 1 1 2.000000 123.922687 24.223333 -0.703000 0.000000 0.000000 0.000000 0.000000
1 1 1 1 2.000000 123.923672 24.223327 -0.563300 0.000000 0.000000 0.000000 0.000000
1 1 1 1 2.000000 123.924656 24.223321 -0.703000 0.000000 0.000000 0.000000 0.000000
1 1 1 1 2.000000 123.925641 24.223315 -0.703000 0.000000 0.000000 0.000000 0.000000
1 1 1 1 2.000000 123.926626 24.223309 -0.426300 0.000000 0.000000 0.000000 0.000000
1 1 1 1 2.000000 123.927611 24.223303 -0.225700 0.000000 0.000000 0.000000 0.000000
1 1 1 1 2.000000 123.930565 24.223285 -0.291700 0.000000 0.000000 0.000000 0.000000
1 1 1 1 2.000000 123.931550 24.223279 -0.359000 0.000000 0.000000 0.000000 0.000000
1 1 1 1 2.000000 123.932534 24.223273 -1.171900 0.000000 0.000000 0.000000 0.000000
1 1 1 1 2.000000 123.933519 24.223267 -1.896900 0.000000 0.000000 0.000000 0.000000
1 1 1 1 2.000000 123.934504 24.223261 -1.232700 0.000000 0.000000 0.000000 0.000000
1 1 1 1 2.000000 123.935489 24.223255 -1.043800 0.000000 0.000000 0.000000 0.000000
1 1 1 1 2.000000 123.936473 24.223249 -0.932200 0.000000 0.000000 0.000000 0.000000
1 1 1 1 2.000000 123.937458 24.223243 -0.534100 0.000000 0.000000 0.000000 0.000000
1 1 1 1 2.000000 123.938443 24.223237 -0.406000 0.000000 0.000000 0.000000 0.000000
1 1 1 1 2.000000 123.944351 24.223200 -4.536900 0.000000 0.000000 0.000000 0.000000
1 1 1 1 2.000000 123.945336 24.223194 -6.479300 0.000000 0.000000 0.000000 0.000000
1 1 1 1 2.000000 123.946321 24.223188 -13.300000 0.000000 0.000000 0.000000 0.000000
1 1 1 1 2.000000 123.947306 24.223182 -23.300000 0.000000 0.000000 0.000000 0.000000
1 1 1 1 2.000000 123.994573 24.222880 -28.300000 0.000000 0.000000 0.000000 0.000000
1 1 1 1 2.000000 123.995558 24.222874 -20.929000 0.000000 0.000000 0.000000 0.000000
1 1 1 1 2.000000 123.996543 24.222868 -9.530000 0.000000 0.000000 0.000000 0.000000
1 1 1 1 2.000000 123.997527 24.222861 -3.634200 0.000000 0.000000 0.000000 0.000000
1 1 1 1 2.000000 124.000481 24.222842 -0.749500 0.000000 0.000000 0.000000 0.000000
1 1 1 1 2.000000 124.001466 24.222835 -0.453700 0.000000 0.000000 0.000000 0.000000
1 1 1 1 2.000000 124.002451 24.222829 -0.247200 0.000000 0.000000 0.000000 0.000000
1 1 1 1 2.000000 124.016237 24.222737 -0.930100 0.000000 0.000000 0.000000 0.000000
1 1 1 1 2.000000 124.017222 24.222731 -0.702800 0.000000 0.000000 0.000000 0.000000
1 1 1 1 2.000000 124.018207 24.222724 -0.942600 0.000000 0.000000 0.000000 0.000000
1 1 1 1 2.000000 124.019191 24.222718 -1.065500 0.000000 0.000000 0.000000 0.000000
1 1 1 1 2.000000 124.020176 24.222711 -1.065500 0.000000 0.000000 0.000000 0.000000
1 1 1 1 2.000000 124.021161 24.222705 -0.973600 0.000000 0.000000 0.000000 0.000000
1 1 1 1 2.000000 124.022145 24.222698 -0.875900 0.000000 0.000000 0.000000 0.000000
1 1 1 1 2.000000 124.023130 24.222691 -0.687300 0.000000 0.000000 0.000000 0.000000
1 1 1 1 2.000000 124.024115 24.222685 -0.089700 0.000000 0.000000 0.000000 0.000000
1 1 1 1 2.000000 124.025100 24.222678 -0.032100 0.000000 0.000000 0.000000 0.000000
1 1 1 1 2.000000 124.026084 24.222671 -0.032100 0.000000 0.000000 0.000000 0.000000
1 1 1 1 2.000000 124.028054 24.222658 -2.485300 0.000000 0.000000 0.000000 0.000000
1 1 1 1 2.000000 124.029038 24.222651 -3.058600 0.000000 0.000000 0.000000 0.000000
1 1 1 1 2.000000 124.030023 24.222645 -6.697900 0.000000 0.000000 0.000000 0.000000
1 1 1 1 2.000000 124.031008 24.222638 -5.521600 0.000000 0.000000 0.000000 0.000000
1 1 1 1 2.000000 124.031993 24.222631 -3.058900 0.000000 0.000000 0.000000 0.000000
1 1 1 1 2.000000 124.032977 24.222625 -5.083500 0.000000 0.000000 0.000000 0.000000
1 1 1 1 2.000000 124.033962 24.222618 -6.439400 0.000000 0.000000 0.000000 0.000000
1 1 1 1 2.000000 124.034947 24.222611 -7.142200 0.000000 0.000000 0.000000 0.000000
1 1 1 1 2.000000 124.035931 24.222605 -8.300000 0.000000 0.000000 0.000000 0.000000
1 1 1 1 2.000000 124.036916 24.222598 -13.300000 0.000000 0.000000 0.000000 0.000000
1 1 1 1 2.000000 124.037901 24.222591 -16.760000 0.000000 0.000000 0.000000 0.000000
1 1 1 1 2.000000 124.038886 24.222585 -20.376000 0.000000 0.000000 0.000000 0.000000
1 1 1 1 2.000000 124.039870 24.222578 -23.300000 0.000000 0.000000 0.000000 0.000000
1 1 1 1 2.000000 124.040855 24.222571 -28.300000 0.000000 0.000000 0.000000 0.000000
1 1 1 1 2.000000 123.904967 24.224343 -25.955000 0.000000 0.000000 0.000000 0.000000
1 1 1 1 2.000000 123.905952 24.224337 -22.257000 0.000000 0.000000 0.000000 0.000000
1 1 1 1 2.000000 123.906937 24.224331 -19.932000 0.000000 0.000000 0.000000 0.000000
1 1 1 1 2.000000 123.907922 24.224325 -19.453000 0.000000 0.000000 0.000000 0.000000
1 1 1 1 2.000000 123.908907 24.224319 -18.300000 0.000000 0.000000 0.000000 0.000000
1 1 1 1 2.000000 123.909891 24.224313 -10.800000 0.000000 0.000000 0.000000 0.000000
1 1 1 1 2.000000 123.910876 24.224307 -5.767600 0.000000 0.000000 0.000000 0.000000
1 1 1 1 2.000000 123.911861 24.224301 -3.010000 0.000000 0.000000 0.000000 0.000000
1 1 1 1 2.000000 123.912846 24.224296 -3.010000 0.000000 0.000000 0.000000 0.000000
1 1 1 1 2.000000 123.913830 24.224290 -2.574100 0.000000 0.000000 0.000000 0.000000
1 1 1 1 2.000000 123.914815 24.224284 -2.340600 0.000000 0.000000 0.000000 0.000000
1 1 1 1 2.000000 123.915800 24.224278 -1.418900 0.000000 0.000000 0.000000 0.000000
1 1 1 1 2.000000 123.916785 24.224272 -2.771400 0.000000 0.000000 0.000000 0.000000
1 1 1 1 2.000000 123.917769 24.224266 -2.151400 0.000000 0.000000 0.000000 0.000000
1 1 1 1 2.000000 123.918754 24.224260 -2.412600 0.000000 0.000000 0.000000 0.000000
1 1 1 1 2.000000 123.919739 24.224254 -1.669500 0.000000 0.000000 0.000000 0.000000
1 1 1 1 2.000000 123.920724 24.224248 -2.412800 0.000000 0.000000 0.000000 0.000000
1 1 1 1 2.000000 123.921709 24.224242 -0.685900 0.000000 0.000000 0.000000 0.000000
1 1 1 1 2.000000 123.922693 24.224236 -0.845500 0.000000 0.000000 0.000000 0.000000
1 1 1 1 2.000000 123.923678 24.224230 -0.703000 0.000000 0.000000 0.000000 0.000000
1 1 1 1 2.000000 123.924663 24.224224 -0.703000 0.000000 0.000000 0.000000 0.000000
1 1 1 1 2.000000 123.925648 24.224218 -0.703000 0.000000 0.000000 0.000000 0.000000
1 1 1 1 2.000000 123.926632 24.224212 -0.703000 0.000000 0.000000 0.000000 0.000000
1 1 1 1 2.000000 123.927617 24.224206 -0.426300 0.000000 0.000000 0.000000 0.000000
1 1 1 1 2.000000 123.928602 24.224200 -0.426300 0.000000 0.000000 0.000000 0.000000
1 1 1 1 2.000000 123.929587 24.224194 -0.563300 0.000000 0.000000 0.000000 0.000000
1 1 1 1 2.000000 123.930571 24.224188 -0.633100 0.000000 0.000000 0.000000 0.000000
1 1 1 1 2.000000 123.931556 24.224182 -1.896900 0.000000 0.000000 0.000000 0.000000
1 1 1 1 2.000000 123.932541 24.224176 -1.905500 0.000000 0.000000 0.000000 0.000000
1 1 1 1 2.000000 123.933526 24.224170 -1.763000 0.000000 0.000000 0.000000 0.000000
1 1 1 1 2.000000 123.934510 24.224164 -1.517000 0.000000 0.000000 0.000000 0.000000
1 1 1 1 2.000000 123.935495 24.224158 -0.797100 0.000000 0.000000 0.000000 0.000000
1 1 1 1 2.000000 123.936480 24.224152 -1.033900 0.000000 0.000000 0.000000 0.000000
1 1 1 1 2.000000 123.937465 24.224146 -0.700900 0.000000 0.000000 0.000000 0.000000
1 1 1 1 2.000000 123.938449 24.224140 -0.625100 0.000000 0.000000 0.000000 0.000000
[...]
1 1 1 1 2.000000 124.099735 24.427156 -0.546300 0.000000 0.000000 0.000000 0.000000
1 1 1 1 2.000000 124.100722 24.427149 -0.770300 0.000000 0.000000 0.000000 0.000000
1 1 1 1 2.000000 124.101708 24.427142 -1.865700 0.000000 0.000000 0.000000 0.000000
1 1 1 1 2.000000 124.102694 24.427135 -1.735300 0.000000 0.000000 0.000000 0.000000
1 1 1 1 2.000000 124.103680 24.427128 -8.300000 0.000000 0.000000 0.000000 0.000000
1 1 1 1 2.000000 124.104667 24.427120 -8.451000 0.000000 0.000000 0.000000 0.000000
1 1 1 1 2.000000 124.105653 24.427113 -8.300000 0.000000 0.000000 0.000000 0.000000
1 1 1 1 2.000000 124.106639 24.427106 -1.865700 0.000000 0.000000 0.000000 0.000000
1 1 1 1 2.000000 124.107626 24.427099 -1.607300 0.000000 0.000000 0.000000 0.000000
1 1 1 1 2.000000 124.108612 24.427092 -1.481600 0.000000 0.000000 0.000000 0.000000
1 1 1 1 2.000000 124.109598 24.427084 -1.481600 0.000000 0.000000 0.000000 0.000000
1 1 1 1 2.000000 124.110584 24.427077 -1.117000 0.000000 0.000000 0.000000 0.000000
1 1 1 1 2.000000 124.111571 24.427070 -1.671300 0.000000 0.000000 0.000000 0.000000
1 1 1 1 2.000000 124.112557 24.427063 -1.607300 0.000000 0.000000 0.000000 0.000000
1 1 1 1 2.000000 124.113543 24.427055 -1.481600 0.000000 0.000000 0.000000 0.000000
1 1 1 1 2.000000 124.114530 24.427048 -1.735300 0.000000 0.000000 0.000000 0.000000
1 1 1 1 2.000000 124.115516 24.427041 -1.735300 0.000000 0.000000 0.000000 0.000000
1 1 1 1 2.000000 124.116502 24.427034 -1.735300 0.000000 0.000000 0.000000 0.000000
1 1 1 1 2.000000 124.117488 24.427026 -1.735300 0.000000 0.000000 0.000000 0.000000
1 1 1 1 2.000000 124.118475 24.427019 -1.735300 0.000000 0.000000 0.000000 0.000000
1 1 1 1 2.000000 124.119461 24.427012 -2.003700 0.000000 0.000000 0.000000 0.000000
1 1 1 1 2.000000 124.120447 24.427004 -4.627900 0.000000 0.000000 0.000000 0.000000
1 1 1 1 2.000000 124.121433 24.426997 -2.003700 0.000000 0.000000 0.000000 0.000000
1 1 1 1 2.000000 124.122420 24.426990 -2.003700 0.000000 0.000000 0.000000 0.000000
1 1 1 1 2.000000 124.123406 24.426982 -1.763100 0.000000 0.000000 0.000000 0.000000
1 1 1 1 2.000000 124.124392 24.426975 -1.090000 0.000000 0.000000 0.000000 0.000000
1 1 1 1 2.000000 124.125378 24.426968 -0.600000 0.000000 0.000000 0.000000 0.000000
1 1 1 1 2.000000 124.068182 24.428285 -18.300000 0.000000 0.000000 0.000000 0.000000
1 1 1 1 2.000000 124.069168 24.428279 -1.781700 0.000000 0.000000 0.000000 0.000000
1 1 1 1 2.000000 124.070154 24.428272 -1.713200 0.000000 0.000000 0.000000 0.000000
1 1 1 1 2.000000 124.094812 24.428095 -0.273800 0.000000 0.000000 0.000000 0.000000
1 1 1 1 2.000000 124.095798 24.428088 -0.670600 0.000000 0.000000 0.000000 0.000000
1 1 1 1 2.000000 124.096784 24.428081 -0.617800 0.000000 0.000000 0.000000 0.000000
1 1 1 1 2.000000 124.099743 24.428059 -0.158800 0.000000 0.000000 0.000000 0.000000
1 1 1 1 2.000000 124.100729 24.428052 -0.657100 0.000000 0.000000 0.000000 0.000000
1 1 1 1 2.000000 124.101716 24.428045 -1.419800 0.000000 0.000000 0.000000 0.000000
1 1 1 1 2.000000 124.102702 24.428038 -1.735300 0.000000 0.000000 0.000000 0.000000
1 1 1 1 2.000000 124.103688 24.428031 -1.934700 0.000000 0.000000 0.000000 0.000000
1 1 1 1 2.000000 124.104675 24.428023 -8.299100 0.000000 0.000000 0.000000 0.000000
1 1 1 1 2.000000 124.105661 24.428016 -5.838900 0.000000 0.000000 0.000000 0.000000
1 1 1 1 2.000000 124.106647 24.428009 -1.800500 0.000000 0.000000 0.000000 0.000000
1 1 1 1 2.000000 124.107633 24.428002 -1.735300 0.000000 0.000000 0.000000 0.000000
1 1 1 1 2.000000 124.108620 24.427995 -1.419800 0.000000 0.000000 0.000000 0.000000
1 1 1 1 2.000000 124.109606 24.427987 -0.883600 0.000000 0.000000 0.000000 0.000000
1 1 1 1 2.000000 124.110592 24.427980 -0.612500 0.000000 0.000000 0.000000 0.000000
1 1 1 1 2.000000 124.111579 24.427973 -0.612500 0.000000 0.000000 0.000000 0.000000
1 1 1 1 2.000000 124.112565 24.427966 -1.048900 0.000000 0.000000 0.000000 0.000000
1 1 1 1 2.000000 124.113551 24.427958 -1.618900 0.000000 0.000000 0.000000 0.000000
1 1 1 1 2.000000 124.114537 24.427951 -2.003700 0.000000 0.000000 0.000000 0.000000
1 1 1 1 2.000000 124.115524 24.427944 -1.809200 0.000000 0.000000 0.000000 0.000000
1 1 1 1 2.000000 124.116510 24.427937 -1.618900 0.000000 0.000000 0.000000 0.000000
1 1 1 1 2.000000 124.117496 24.427929 -1.735300 0.000000 0.000000 0.000000 0.000000
1 1 1 1 2.000000 124.118483 24.427922 -2.003700 0.000000 0.000000 0.000000 0.000000
1 1 1 1 2.000000 124.119469 24.427915 -7.246600 0.000000 0.000000 0.000000 0.000000
1 1 1 1 2.000000 124.120455 24.427907 -7.804500 0.000000 0.000000 0.000000 0.000000
1 1 1 1 2.000000 124.121441 24.427900 -2.003700 0.000000 0.000000 0.000000 0.000000
1 1 1 1 2.000000 124.122428 24.427893 -1.877100 0.000000 0.000000 0.000000 0.000000
1 1 1 1 2.000000 124.123414 24.427885 -0.930100 0.000000 0.000000 0.000000 0.000000
1 1 1 1 2.000000 124.124400 24.427878 -0.820500 0.000000 0.000000 0.000000 0.000000
1 1 1 1 2.000000 124.068189 24.429188 -13.300000 0.000000 0.000000 0.000000 0.000000
1 1 1 1 2.000000 124.069176 24.429182 -1.713200 0.000000 0.000000 0.000000 0.000000
1 1 1 1 2.000000 124.070162 24.429175 -1.871400 0.000000 0.000000 0.000000 0.000000
1 1 1 1 2.000000 124.071148 24.429168 -4.108300 0.000000 0.000000 0.000000 0.000000
1 1 1 1 2.000000 124.096792 24.428984 -0.375300 0.000000 0.000000 0.000000 0.000000
1 1 1 1 2.000000 124.097778 24.428977 -0.271500 0.000000 0.000000 0.000000 0.000000
1 1 1 1 2.000000 124.098765 24.428970 -0.199500 0.000000 0.000000 0.000000 0.000000
1 1 1 1 2.000000 124.099751 24.428962 -0.507200 0.000000 0.000000 0.000000 0.000000
1 1 1 1 2.000000 124.100737 24.428955 -1.237500 0.000000 0.000000 0.000000 0.000000
1 1 1 1 2.000000 124.101724 24.428948 -1.735300 0.000000 0.000000 0.000000 0.000000
1 1 1 1 2.000000 124.102710 24.428941 -1.865700 0.000000 0.000000 0.000000 0.000000
1 1 1 1 2.000000 124.103696 24.428934 -1.682800 0.000000 0.000000 0.000000 0.000000
1 1 1 1 2.000000 124.104682 24.428926 -1.877100 0.000000 0.000000 0.000000 0.000000
1 1 1 1 2.000000 124.105669 24.428919 -2.003700 0.000000 0.000000 0.000000 0.000000
1 1 1 1 2.000000 124.106655 24.428912 -1.735300 0.000000 0.000000 0.000000 0.000000
1 1 1 1 2.000000 124.107641 24.428905 -1.735300 0.000000 0.000000 0.000000 0.000000
1 1 1 1 2.000000 124.108628 24.428898 -1.495900 0.000000 0.000000 0.000000 0.000000
1 1 1 1 2.000000 124.109614 24.428890 -0.827200 0.000000 0.000000 0.000000 0.000000
1 1 1 1 2.000000 124.110600 24.428883 -0.507200 0.000000 0.000000 0.000000 0.000000
1 1 1 1 2.000000 124.111587 24.428876 -0.300800 0.000000 0.000000 0.000000 0.000000
1 1 1 1 2.000000 124.112573 24.428869 -0.300800 0.000000 0.000000 0.000000 0.000000
1 1 1 1 2.000000 124.113559 24.428861 -0.507900 0.000000 0.000000 0.000000 0.000000
1 1 1 1 2.000000 124.114545 24.428854 -1.391900 0.000000 0.000000 0.000000 0.000000
1 1 1 1 2.000000 124.115532 24.428847 -1.275500 0.000000 0.000000 0.000000 0.000000
1 1 1 1 2.000000 124.116518 24.428840 -1.161000 0.000000 0.000000 0.000000 0.000000
1 1 1 1 2.000000 124.117504 24.428832 -1.558800 0.000000 0.000000 0.000000 0.000000
1 1 1 1 2.000000 124.118491 24.428825 -2.003700 0.000000 0.000000 0.000000 0.000000
1 1 1 1 2.000000 124.119477 24.428818 -7.174000 0.000000 0.000000 0.000000 0.000000
1 1 1 1 2.000000 124.120463 24.428810 -8.300000 0.000000 0.000000 0.000000 0.000000
1 1 1 1 2.000000 124.121449 24.428803 -1.510200 0.000000 0.000000 0.000000 0.000000
1 1 1 1 2.000000 124.122436 24.428796 -1.198500 0.000000 0.000000 0.000000 0.000000
1 1 1 1 2.000000 124.123422 24.428788 -0.369400 0.000000 0.000000 0.000000 0.000000
1 1 1 1 2.000000 124.068197 24.430092 -13.300000 0.000000 0.000000 0.000000 0.000000
1 1 1 1 2.000000 124.069183 24.430085 -1.578800 0.000000 0.000000 0.000000 0.000000
1 1 1 1 2.000000 124.070170 24.430078 -2.326400 0.000000 0.000000 0.000000 0.000000
1 1 1 1 2.000000 124.098773 24.429873 -0.235500 0.000000 0.000000 0.000000 0.000000
1 1 1 1 2.000000 124.099759 24.429865 -0.882000 0.000000 0.000000 0.000000 0.000000
1 1 1 1 2.000000 124.100745 24.429858 -1.630400 0.000000 0.000000 0.000000 0.000000
1 1 1 1 2.000000 124.101731 24.429851 -2.003700 0.000000 0.000000 0.000000 0.000000
1 1 1 1 2.000000 124.102718 24.429844 -2.003700 0.000000 0.000000 0.000000 0.000000
1 1 1 1 2.000000 124.103704 24.429837 -1.877100 0.000000 0.000000 0.000000 0.000000
1 1 1 1 2.000000 124.104690 24.429829 -2.003700 0.000000 0.000000 0.000000 0.000000
1 1 1 1 2.000000 124.105677 24.429822 -1.436800 0.000000 0.000000 0.000000 0.000000
1 1 1 1 2.000000 124.106663 24.429815 -0.936900 0.000000 0.000000 0.000000 0.000000
1 1 1 1 2.000000 124.107649 24.429808 -1.451000 0.000000 0.000000 0.000000 0.000000
1 1 1 1 2.000000 124.108636 24.429801 -0.688100 0.000000 0.000000 0.000000 0.000000
1 1 1 1 2.000000 124.109622 24.429793 -0.719100 0.000000 0.000000 0.000000 0.000000
1 1 1 1 2.000000 124.110608 24.429786 -0.199500 0.000000 0.000000 0.000000 0.000000
1 1 1 1 2.000000 124.111594 24.429779 -0.187200 0.000000 0.000000 0.000000 0.000000
1 1 1 1 2.000000 124.112581 24.429772 -0.208300 0.000000 0.000000 0.000000 0.000000
1 1 1 1 2.000000 124.115540 24.429750 -0.455200 0.000000 0.000000 0.000000 0.000000
1 1 1 1 2.000000 124.116526 24.429743 -0.992500 0.000000 0.000000 0.000000 0.000000
1 1 1 1 2.000000 124.117512 24.429735 -1.752700 0.000000 0.000000 0.000000 0.000000
1 1 1 1 2.000000 124.118498 24.429728 -2.003700 0.000000 0.000000 0.000000 0.000000
1 1 1 1 2.000000 124.119485 24.429721 -1.877100 0.000000 0.000000 0.000000 0.000000
1 1 1 1 2.000000 124.120471 24.429713 -1.881200 0.000000 0.000000 0.000000 0.000000
1 1 1 1 2.000000 124.121457 24.429706 -1.090000 0.000000 0.000000 0.000000 0.000000
1 1 1 1 2.000000 124.122444 24.429699 -0.386300 0.000000 0.000000 0.000000 0.000000
1 1 1 1 2.000000 124.124416 24.429684 -0.301500 0.000000 0.000000 0.000000 0.000000
1 1 1 1 2.000000 124.068205 24.430995 -9.971000 0.000000 0.000000 0.000000 0.000000
1 1 1 1 2.000000 124.069191 24.430988 -1.512900 0.000000 0.000000 0.000000 0.000000
1 1 1 1 2.000000 124.099767 24.430768 -0.694700 0.000000 0.000000 0.000000 0.000000
1 1 1 1 2.000000 124.100753 24.430761 -1.161000 0.000000 0.000000 0.000000 0.000000
1 1 1 1 2.000000 124.101739 24.430754 -1.436800 0.000000 0.000000 0.000000 0.000000
1 1 1 1 2.000000 124.102726 24.430747 -0.746100 0.000000 0.000000 0.000000 0.000000
1 1 1 1 2.000000 124.103712 24.430740 -0.994100 0.000000 0.000000 0.000000 0.000000
1 1 1 1 2.000000 124.104698 24.430732 -0.937600 0.000000 0.000000 0.000000 0.000000
1 1 1 1 2.000000 124.105685 24.430725 -0.665800 0.000000 0.000000 0.000000 0.000000
1 1 1 1 2.000000 124.106671 24.430718 -0.612500 0.000000 0.000000 0.000000 0.000000
1 1 1 1 2.000000 124.107657 24.430711 -1.691600 0.000000 0.000000 0.000000 0.000000
1 1 1 1 2.000000 124.108643 24.430704 -1.048900 0.000000 0.000000 0.000000 0.000000
1 1 1 1 2.000000 124.109630 24.430696 -0.099400 0.000000 0.000000 0.000000 0.000000
1 1 1 1 2.000000 124.110616 24.430689 -0.079100 0.000000 0.000000 0.000000 0.000000
1 1 1 1 2.000000 124.111602 24.430682 -0.858600 0.000000 0.000000 0.000000 0.000000
1 1 1 1 2.000000 124.113575 24.430667 -0.509600 0.000000 0.000000 0.000000 0.000000
1 1 1 1 2.000000 124.115548 24.430653 -0.000600 0.000000 0.000000 0.000000 0.000000
1 1 1 1 2.000000 124.116534 24.430646 -0.719100 0.000000 0.000000 0.000000 0.000000
1 1 1 1 2.000000 124.117520 24.430638 -1.944500 0.000000 0.000000 0.000000 0.000000
1 1 1 1 2.000000 124.118506 24.430631 -2.129400 0.000000 0.000000 0.000000 0.000000
1 1 1 1 2.000000 124.119493 24.430624 -1.144200 0.000000 0.000000 0.000000 0.000000
1 1 1 1 2.000000 124.120479 24.430616 -1.090000 0.000000 0.000000 0.000000 0.000000
1 1 1 1 2.000000 124.121465 24.430609 -0.694700 0.000000 0.000000 0.000000 0.000000
1 1 1 1 2.000000 124.122452 24.430602 -0.079700 0.000000 0.000000 0.000000 0.000000
1 1 1 1 2.000000 124.124424 24.430587 -0.181300 0.000000 0.000000 0.000000 0.000000
1 1 1 1 2.000000 124.067226 24.431905 -28.300000 0.000000 0.000000 0.000000 0.000000
1 1 1 1 2.000000 124.068212 24.431898 -7.466700 0.000000 0.000000 0.000000 0.000000
1 1 1 1 2.000000 124.069199 24.431891 -1.713200 0.000000 0.000000 0.000000 0.000000
1 1 1 1 2.000000 124.101747 24.431657 -0.721700 0.000000 0.000000 0.000000 0.000000
1 1 1 1 2.000000 124.102733 24.431650 -1.766200 0.000000 0.000000 0.000000 0.000000
1 1 1 1 2.000000 124.103720 24.431643 -1.125500 0.000000 0.000000 0.000000 0.000000
1 1 1 1 2.000000 124.104706 24.431635 -0.286100 0.000000 0.000000 0.000000 0.000000
1 1 1 1 2.000000 124.105692 24.431628 -0.300800 0.000000 0.000000 0.000000 0.000000
1 1 1 1 2.000000 124.106679 24.431621 -0.612500 0.000000 0.000000 0.000000 0.000000
1 1 1 1 2.000000 124.107665 24.431614 -1.350300 0.000000 0.000000 0.000000 0.000000
1 1 1 1 2.000000 124.108651 24.431607 -1.090000 0.000000 0.000000 0.000000 0.000000
1 1 1 1 2.000000 124.116542 24.431549 -0.369400 0.000000 0.000000 0.000000 0.000000
1 1 1 1 2.000000 124.117528 24.431541 -1.886200 0.000000 0.000000 0.000000 0.000000
1 1 1 1 2.000000 124.118514 24.431534 -1.839300 0.000000 0.000000 0.000000 0.000000
1 1 1 1 2.000000 124.119501 24.431527 -1.144200 0.000000 0.000000 0.000000 0.000000
1 1 1 1 2.000000 124.120487 24.431519 -1.144200 0.000000 0.000000 0.000000 0.000000
1 1 1 1 2.000000 124.121473 24.431512 -0.162000 0.000000 0.000000 0.000000 0.000000
1 1 1 1 2.000000 124.067234 24.432808 -28.300000 0.000000 0.000000 0.000000 0.000000
1 1 1 1 2.000000 124.068220 24.432801 -14.000000 0.000000 0.000000 0.000000 0.000000
1 1 1 1 2.000000 124.068228 24.433704 -21.368889 0.000000 0.000000 0.000000 0.000000
1 1 1 1 2.000000 124.068235 24.434607 -21.368889 0.000000 0.000000 0.000000 0.000000


!      1  0  1  10   0.00  120.0  150.0   15.000    0.00     0.01     0.0  0.000


!      1  0  1  10   0.00  120.0  150.0   15.000    0.00     0.01     0.0  0.000

 
!
!  GLOSSARY:
!  =========
!
!  This input file provides the initial locations of the float trajectories
!  to compute.
!
!------------------------------------------------------------------------------
! Control Switches.
!------------------------------------------------------------------------------
!
! Lfloats   Switch to control the computation of floats trajectories within
!             nested and/or multiple connected grids. Ngrids values are
!             expected. By default this switch is set to TRUE in "mod_scalars"
!             for all grids when the CPP option FLOATS is activated. The
!             USER can control which grid to process by turning on/off this
!             switch.
!
! Fprint    Switch to control the printing of floats positions to standard
!             output file. This switch can be used to turn of the printing
!             of information whe thousands of floats are released.  This
!             information is still in output floats NetCDF file.
!
! FRREC     Flag to indicate re-start from a previous solution.  Use
!             FRREC=0 for new solutions. In a re-start solution, FRREC
!             is the time index in the floats NetCDF file assigned for
!             initialization.  If FRREC is negative (say FRREC=-1), the
!             floats will re-start from the most recent time record.
!             That is, the initialization record is assigned internally.
!
!------------------------------------------------------------------------------
! Biological behavior.
!------------------------------------------------------------------------------
!
! FBIONAM   If applicable, input script file name containing biological floats
!              behavior model parameters.
!
!------------------------------------------------------------------------------
! Number of floats.
!------------------------------------------------------------------------------
!
!  NFLOATS   Number of floats to release in each nested grid.  Provide
!              the exact number of floats.  These values are used to
!              dynamically allocate the arrays in FLOATS array structure.
!
!------------------------------------------------------------------------------
! Initial float location KEYWORDS.  The model variable name is not used as
! keyword in some parameters.  However, it namce is provided in brackets.
!------------------------------------------------------------------------------
!
!  G         Nested grid number [ng].
!
!  C         Initial horizontal location coordinate type [Fcoor]:
!
!              Fcoor = 0,  rho grid units
!                             0.5 =< Fx0 =< Lm(ng)+0.5,
!                             0.5 =< Fy0 =< Mm(ng)+0.5
!
!              Fcoor = 1,  Fx0 is longitude (west values are negative).
!                          Fy0 is latitude (south values are negative).
!
!  T         Float trajectory type [Ftype]:
!
!              Ftype = 1,  3D Lagrangian floats.
!                          (flt_Lagran)
!
!              Ftype = 2,  Isobaric floats, p=g*(z+zeta)=constant.
!                          (flt_Isobar)
!
!              Ftype = 3,  Geopotential floats, constant depth.
!                          (flt_Geopot)
!
!  N         Number of floats [Fcount] to be released at the (Fx0,Fy0,Fz0)
!              location.  It must be equal or greater than one. If Fcount
!              is greater than one, a cluster distribution of floats
!              centered at (Fx0,Fy0,Fz0) is activated.
!
!              NOTE:  The total number of floats trajectories to compute
!              ====   must add to NFLOATS.
!
!  Ft0       Time (days) of float release after model initialization (real).
!
!  Fx0       Initial float x-location (real; grid units or longitude).
!
!  Fy0       Initial float y-location (real; grid units or latitude).
!
!  Fz0       Initial float z-location (real; vertical level or depth).
!              If Fz0 is less than or equal to zero, Fz0 is the initial
!              depth in meters.  Otherwise, if Fz0 is positive and
!
!                             0 < Fz0 =< N(ng),
!
!              Fz0 is the initial position relative to the W grid
!              (0 = bottom; N = surface).
!
!              If the float trajectory type is Isobaric (Ftype=2) or
!              Geopotential (Ftype=3), Fz0 must be a negative number
!              representing depth in meters. If the float type is
!              Lagrangian (Ftype=1), Fz0 can be a level (positive) or
!              a depth in meters (negative).
!
!              WARNING: If the depth in meters at particular horizontal
!                       is not bounded, the floats are released at the
!                       surface.
!
!  Fdt       Float cluster release time interval (real; days), only used
!              if Fcount > 1:
!
!              Fdt = 0,  Fcount floats will be deployed simultaneously
!                        with a distribution centered at (Fx0,Fy0,Fz0)
!                        and defined by (Fdx,Fdy,Fdz).
!
!              Fdt > 0,  a cluster of floats will be deployed from
!                        (Fx0,Fy0,Fz0) at Fdt intervals until Fcount
!                        floats are released.
!
!  Fdx       Cluster x-distribution parameter (real), only used if
!              Fcount > 1 and Fdt = 0.
!
!  Fdy       Cluster y-distribution parameter (real), only used if
!              Fcount > 1 and Fdt = 0.
!
!  Fdz       Cluster z-distribution parameter (real), only used if
!              Fcount > 1 and Fdt = 0.
!
!            NOTE:  the parameters (Fdx,Fdy,Fdz) can be used to specify
!            ====   any type of cluster distribution, for instance:
!
!                   * Lines of floats:
!
!                         Fdx > 0,  Fdy = 0,  Fdz = 0
!                         Fdx = 0,  Fdy > 0,  Fdz = 0
!                         Fdx = 0,  Fdy = 0,  Fdz > 0
!
!             The USER can use any of these parameters to design any
!             cluster distribution in routine "init_floats.F".
