!  Floats Input Parameters.
!
!svn $Id$
!========================================================= Hernan G. Arango ===
!  Copyright (c) 2002-2014 The ROMS/TOMS Group                                !
!    Licensed under a MIT/X style license                                     !
!    See License_ROMS.txt                                                     !
!==============================================================================
!                                                                             !
! Input parameters can be entered in ANY order, provided that the parameter   !
! KEYWORD (usually, upper case) is typed correctly followed by "="  or "=="   !
! symbols. Any comment lines are allowed and must begin with an exclamation   !
! mark (!) in column one.  Comments may  appear to the right of a parameter   !
! specification to improve documentation.  Comments will be ignored  during   !
! reading.  Blank lines are also allowed and ignored. Continuation lines in   !
! a parameter specification are allowed and must be preceded by a backslash   !
! (\).  In some instances, more than one value is required for a parameter.   !
! If fewer values are provided, the  last value  is assigned for the entire   !
! parameter array.  The multiplication symbol (*),  without blank spaces in   !
! between, is allowed for a parameter specification.  For example, in a two   !
! grids nested application:                                                   !
!                                                                             !
!    AKT_BAK == 2*1.0d-6  2*5.0d-6              ! m2/s                        !
!                                                                             !
! indicates that the first two entries of array AKT_BAK,  in fortran column-  !
! major order, will have the same value of "1.0d-6" for grid 1,  whereas the  !
! next two entries will have the same value of "5.0d-6" for grid 2.           !
!                                                                             !
! In multiple levels of nesting and/or multiple connected domains  step-ups,  !
! "Ngrids" entries are expected for some of these parameters.  In such case,  !
! the order of the entries for a parameter is extremely important.  It  must  !
! follow the same order (1:Ngrids) as in the state variable declaration. The  !
! USER may follow the above guidelines for specifying his/her values.  These  !
! parameters are marked by "==" plural symbol after the KEYWORD.              !
!                                                                             !
!==============================================================================
!
! Switch to control the computation of floats trajectories within nested
! and/or multiple connected grids, [1:Ngrids].
!
     Lfloats == T

! Switch to control the printing of floats positions to standard output
! file, [1:Ngrids].
!
      Fprint == T

! Flag indicating re-start from previous solution. If FRREC = 0, a new
! NetCDF output file is created.

       FRREC == 0

! If applicable, input script file name containing biological floats behavior
! model parameters.

     FBIONAM =  behavior_larvae.in

! Number of floats to release in each nested grid.  These values are
! essential because the FLOATS structure in "mod_floats" is dynamically
! allocated using these values, [1:Ngrids].

     NFLOATS == 20820  !!! 5205*2

! Initial floats locations for all grids:
!
!   G      Nested grid number
!   C      Initial horizontal coordinate type (0: grid units, 1: spherical)
!   T      Float trajectory type (1: Lagrangian, 2: isobaric, 3: Geopotential)
!   N      Number floats to be released at (Fx0,Fy0,Fz0)
!   Ft0    Float release time (days) after model initialization
!   Fx0    Initial float X-location (grid units or longitude)
!   Fy0    Initial float Y-location (grid units or latitude)
!   Fz0    Initial float Z-location (grid units or depth)
!   Fdt    Float cluster release time interval (days)
!   Fdx    Float cluster X-distribution parameter
!   Fdy    Float cluster Y-distribution parameter
!   Fdz    Float cluster Z-distribution parameter

POS = G, C, T, N,   Ft0,     Fx0,    Fy0,    Fz0,    Fdt,    Fdx,    Fdy,   Fdz

1 1 1 4 1.000000 123.766004 24.041764 -28.756000 0.500000 0.000000 0.000000 0.000000
1 1 1 4 1.000000 123.777805 24.041704 -27.667000 0.500000 0.000000 0.000000 0.000000
1 1 1 4 1.000000 123.780755 24.041689 -27.508000 0.500000 0.000000 0.000000 0.000000
1 1 1 4 1.000000 123.783705 24.041674 -24.111000 0.500000 0.000000 0.000000 0.000000
1 1 1 4 1.000000 123.786656 24.041659 -24.411000 0.500000 0.000000 0.000000 0.000000
1 1 1 4 1.000000 123.789606 24.041644 -24.900000 0.500000 0.000000 0.000000 0.000000
1 1 1 4 1.000000 123.792556 24.041629 -27.762000 0.500000 0.000000 0.000000 0.000000
1 1 1 4 1.000000 123.745368 24.044575 -28.655000 0.500000 0.000000 0.000000 0.000000
1 1 1 4 1.000000 123.748318 24.044561 -25.900000 0.500000 0.000000 0.000000 0.000000
1 1 1 4 1.000000 123.751269 24.044546 -22.408000 0.500000 0.000000 0.000000 0.000000
1 1 1 4 1.000000 123.754219 24.044532 -21.588000 0.500000 0.000000 0.000000 0.000000
1 1 1 4 1.000000 123.757169 24.044517 -21.904000 0.500000 0.000000 0.000000 0.000000
1 1 1 4 1.000000 123.760120 24.044503 -18.267000 0.500000 0.000000 0.000000 0.000000
1 1 1 4 1.000000 123.763070 24.044488 -19.062000 0.500000 0.000000 0.000000 0.000000
1 1 1 4 1.000000 123.766020 24.044473 -16.597000 0.500000 0.000000 0.000000 0.000000
1 1 1 4 1.000000 123.768970 24.044458 -21.397000 0.500000 0.000000 0.000000 0.000000
1 1 1 4 1.000000 123.771921 24.044444 -19.149000 0.500000 0.000000 0.000000 0.000000
1 1 1 4 1.000000 123.774871 24.044429 -6.947100 0.500000 0.000000 0.000000 0.000000
1 1 1 4 1.000000 123.777821 24.044414 -3.997000 0.500000 0.000000 0.000000 0.000000
1 1 1 4 1.000000 123.780772 24.044399 -5.381100 0.500000 0.000000 0.000000 0.000000
1 1 1 4 1.000000 123.783722 24.044384 -5.763400 0.500000 0.000000 0.000000 0.000000
1 1 1 4 1.000000 123.786672 24.044369 -5.133300 0.500000 0.000000 0.000000 0.000000
1 1 1 4 1.000000 123.789622 24.044353 -4.461300 0.500000 0.000000 0.000000 0.000000
1 1 1 4 1.000000 123.792573 24.044338 -7.194700 0.500000 0.000000 0.000000 0.000000
1 1 1 4 1.000000 123.795523 24.044323 -24.222000 0.500000 0.000000 0.000000 0.000000
1 1 1 4 1.000000 123.739483 24.047313 -27.984000 0.500000 0.000000 0.000000 0.000000
1 1 1 4 1.000000 123.742433 24.047299 -19.300000 0.500000 0.000000 0.000000 0.000000
1 1 1 4 1.000000 123.745384 24.047285 -12.691000 0.500000 0.000000 0.000000 0.000000
1 1 1 4 1.000000 123.748334 24.047270 -10.107000 0.500000 0.000000 0.000000 0.000000
1 1 1 4 1.000000 123.751285 24.047256 -7.202000 0.500000 0.000000 0.000000 0.000000
1 1 1 4 1.000000 123.754235 24.047241 -7.672100 0.500000 0.000000 0.000000 0.000000
1 1 1 4 1.000000 123.757185 24.047227 -2.687100 0.500000 0.000000 0.000000 0.000000
1 1 1 4 1.000000 123.760136 24.047212 -2.920700 0.500000 0.000000 0.000000 0.000000
1 1 1 4 1.000000 123.763086 24.047197 -2.633300 0.500000 0.000000 0.000000 0.000000
1 1 1 4 1.000000 123.798490 24.047017 -22.490000 0.500000 0.000000 0.000000 0.000000
1 1 1 4 1.000000 123.801440 24.047001 -29.078000 0.500000 0.000000 0.000000 0.000000
1 1 1 4 1.000000 123.736548 24.050037 -23.675000 0.500000 0.000000 0.000000 0.000000
1 1 1 4 1.000000 123.739499 24.050023 -15.069000 0.500000 0.000000 0.000000 0.000000
1 1 1 4 1.000000 123.742449 24.050008 -9.357000 0.500000 0.000000 0.000000 0.000000
1 1 1 4 1.000000 123.745399 24.049994 -6.677800 0.500000 0.000000 0.000000 0.000000
1 1 1 4 1.000000 123.748350 24.049980 -3.692900 0.500000 0.000000 0.000000 0.000000
1 1 1 4 1.000000 123.751300 24.049965 -1.300000 0.500000 0.000000 0.000000 0.000000
1 1 1 4 1.000000 123.804407 24.049695 -10.670000 0.500000 0.000000 0.000000 0.000000
1 1 1 4 1.000000 123.733613 24.052761 -25.758000 0.500000 0.000000 0.000000 0.000000
1 1 1 4 1.000000 123.736564 24.052746 -12.592000 0.500000 0.000000 0.000000 0.000000
1 1 1 4 1.000000 123.739514 24.052732 -8.082600 0.500000 0.000000 0.000000 0.000000
1 1 1 4 1.000000 123.742465 24.052718 -6.786500 0.500000 0.000000 0.000000 0.000000
1 1 1 4 1.000000 123.745415 24.052704 -4.202000 0.500000 0.000000 0.000000 0.000000
1 1 1 4 1.000000 123.748366 24.052689 -1.672100 0.500000 0.000000 0.000000 0.000000
1 1 1 4 1.000000 123.807375 24.052389 -26.175000 0.500000 0.000000 0.000000 0.000000
1 1 1 4 1.000000 123.730678 24.055484 -25.039000 0.500000 0.000000 0.000000 0.000000
1 1 1 4 1.000000 123.733629 24.055470 -17.991000 0.500000 0.000000 0.000000 0.000000
1 1 1 4 1.000000 123.736579 24.055456 -9.930000 0.500000 0.000000 0.000000 0.000000
1 1 1 4 1.000000 123.739530 24.055442 -6.530800 0.500000 0.000000 0.000000 0.000000
1 1 1 4 1.000000 123.742480 24.055427 -4.652900 0.500000 0.000000 0.000000 0.000000
1 1 1 4 1.000000 123.745431 24.055413 -3.228600 0.500000 0.000000 0.000000 0.000000
1 1 1 4 1.000000 123.807392 24.055099 -1.800000 0.500000 0.000000 0.000000 0.000000
1 1 1 4 1.000000 123.730693 24.058194 -21.534000 0.500000 0.000000 0.000000 0.000000
1 1 1 4 1.000000 123.733644 24.058179 -15.029000 0.500000 0.000000 0.000000 0.000000
1 1 1 4 1.000000 123.736595 24.058165 -8.477800 0.500000 0.000000 0.000000 0.000000
1 1 1 4 1.000000 123.739545 24.058151 -5.850000 0.500000 0.000000 0.000000 0.000000
1 1 1 4 1.000000 123.742496 24.058137 -3.966700 0.500000 0.000000 0.000000 0.000000
1 1 1 4 1.000000 123.745446 24.058122 -1.691300 0.500000 0.000000 0.000000 0.000000
1 1 1 4 1.000000 123.810359 24.057792 -12.157000 0.500000 0.000000 0.000000 0.000000
1 1 1 4 1.000000 123.727758 24.060917 -27.995000 0.500000 0.000000 0.000000 0.000000
1 1 1 4 1.000000 123.730709 24.060903 -24.277000 0.500000 0.000000 0.000000 0.000000
1 1 1 4 1.000000 123.733659 24.060889 -22.740000 0.500000 0.000000 0.000000 0.000000
1 1 1 4 1.000000 123.736610 24.060875 -14.729000 0.500000 0.000000 0.000000 0.000000
1 1 1 4 1.000000 123.739561 24.060860 -6.655600 0.500000 0.000000 0.000000 0.000000
1 1 1 4 1.000000 123.742511 24.060846 -6.213800 0.500000 0.000000 0.000000 0.000000
1 1 1 4 1.000000 123.745462 24.060832 -2.495700 0.500000 0.000000 0.000000 0.000000
1 1 1 4 1.000000 123.813327 24.060486 -12.078000 0.500000 0.000000 0.000000 0.000000
1 1 1 4 1.000000 123.718921 24.063668 -29.947000 0.500000 0.000000 0.000000 0.000000
1 1 1 4 1.000000 123.733675 24.063598 -27.862000 0.500000 0.000000 0.000000 0.000000
1 1 1 4 1.000000 123.736625 24.063584 -22.615000 0.500000 0.000000 0.000000 0.000000
1 1 1 4 1.000000 123.739576 24.063570 -10.687000 0.500000 0.000000 0.000000 0.000000
1 1 1 4 1.000000 123.742527 24.063556 -8.938300 0.500000 0.000000 0.000000 0.000000
1 1 1 4 1.000000 123.745478 24.063541 -3.997000 0.500000 0.000000 0.000000 0.000000
1 1 1 4 1.000000 123.813344 24.063196 -6.875800 0.500000 0.000000 0.000000 0.000000
1 1 1 4 1.000000 123.718936 24.066378 -27.692000 0.500000 0.000000 0.000000 0.000000
1 1 1 4 1.000000 123.721887 24.066364 -25.130000 0.500000 0.000000 0.000000 0.000000
1 1 1 4 1.000000 123.730739 24.066322 -28.467000 0.500000 0.000000 0.000000 0.000000
1 1 1 4 1.000000 123.733690 24.066308 -24.200000 0.500000 0.000000 0.000000 0.000000
1 1 1 4 1.000000 123.736641 24.066294 -15.376000 0.500000 0.000000 0.000000 0.000000
1 1 1 4 1.000000 123.739592 24.066279 -10.473000 0.500000 0.000000 0.000000 0.000000
1 1 1 4 1.000000 123.742543 24.066265 -6.995700 0.500000 0.000000 0.000000 0.000000
1 1 1 4 1.000000 123.745493 24.066251 -4.894600 0.500000 0.000000 0.000000 0.000000
1 1 1 4 1.000000 123.748444 24.066236 -1.733300 0.500000 0.000000 0.000000 0.000000
1 1 1 4 1.000000 123.757297 24.066193 -3.665400 0.500000 0.000000 0.000000 0.000000
1 1 1 4 1.000000 123.810410 24.065921 -2.133300 0.500000 0.000000 0.000000 0.000000
1 1 1 4 1.000000 123.813361 24.065905 -14.411000 0.500000 0.000000 0.000000 0.000000
1 1 1 4 1.000000 123.716000 24.069101 -27.561000 0.500000 0.000000 0.000000 0.000000
1 1 1 4 1.000000 123.718951 24.069087 -22.157000 0.500000 0.000000 0.000000 0.000000
1 1 1 4 1.000000 123.721902 24.069073 -21.418000 0.500000 0.000000 0.000000 0.000000
1 1 1 4 1.000000 123.724853 24.069059 -29.692000 0.500000 0.000000 0.000000 0.000000
1 1 1 4 1.000000 123.730755 24.069031 -21.633000 0.500000 0.000000 0.000000 0.000000
1 1 1 4 1.000000 123.733706 24.069017 -16.621000 0.500000 0.000000 0.000000 0.000000
1 1 1 4 1.000000 123.736656 24.069003 -13.477000 0.500000 0.000000 0.000000 0.000000
1 1 1 4 1.000000 123.739607 24.068989 -9.761000 0.500000 0.000000 0.000000 0.000000
1 1 1 4 1.000000 123.742558 24.068974 -8.871400 0.500000 0.000000 0.000000 0.000000
1 1 1 4 1.000000 123.745509 24.068960 -7.196600 0.500000 0.000000 0.000000 0.000000
1 1 1 4 1.000000 123.748460 24.068946 -2.435100 0.500000 0.000000 0.000000 0.000000
1 1 1 4 1.000000 123.751411 24.068931 -1.385100 0.500000 0.000000 0.000000 0.000000
1 1 1 4 1.000000 123.754362 24.068917 -5.344800 0.500000 0.000000 0.000000 0.000000
1 1 1 4 1.000000 123.757312 24.068902 -6.694700 0.500000 0.000000 0.000000 0.000000
1 1 1 4 1.000000 123.760263 24.068888 -3.164200 0.500000 0.000000 0.000000 0.000000
1 1 1 4 1.000000 123.801575 24.068677 -5.651400 0.500000 0.000000 0.000000 0.000000
1 1 1 4 1.000000 123.804526 24.068661 -4.925000 0.500000 0.000000 0.000000 0.000000
1 1 1 4 1.000000 123.807476 24.068646 -19.856000 0.500000 0.000000 0.000000 0.000000
1 1 1 4 1.000000 123.810427 24.068630 -24.406000 0.500000 0.000000 0.000000 0.000000
1 1 1 4 1.000000 123.713064 24.071824 -29.941000 0.500000 0.000000 0.000000 0.000000
1 1 1 4 1.000000 123.716015 24.071811 -26.125000 0.500000 0.000000 0.000000 0.000000
1 1 1 4 1.000000 123.718966 24.071797 -19.941000 0.500000 0.000000 0.000000 0.000000
1 1 1 4 1.000000 123.721917 24.071783 -15.900000 0.500000 0.000000 0.000000 0.000000
1 1 1 4 1.000000 123.724868 24.071769 -15.524000 0.500000 0.000000 0.000000 0.000000
1 1 1 4 1.000000 123.727819 24.071755 -15.091000 0.500000 0.000000 0.000000 0.000000
1 1 1 4 1.000000 123.730770 24.071741 -14.092000 0.500000 0.000000 0.000000 0.000000
1 1 1 4 1.000000 123.733721 24.071727 -13.586000 0.500000 0.000000 0.000000 0.000000
1 1 1 4 1.000000 123.736672 24.071712 -14.179000 0.500000 0.000000 0.000000 0.000000
1 1 1 4 1.000000 123.739623 24.071698 -13.531000 0.500000 0.000000 0.000000 0.000000
1 1 1 4 1.000000 123.742574 24.071684 -12.596000 0.500000 0.000000 0.000000 0.000000
1 1 1 4 1.000000 123.745525 24.071670 -11.032000 0.500000 0.000000 0.000000 0.000000
1 1 1 4 1.000000 123.748476 24.071655 -7.560900 0.500000 0.000000 0.000000 0.000000
1 1 1 4 1.000000 123.751427 24.071641 -10.955000 0.500000 0.000000 0.000000 0.000000
1 1 1 4 1.000000 123.754377 24.071626 -10.853000 0.500000 0.000000 0.000000 0.000000
1 1 1 4 1.000000 123.757328 24.071612 -7.068300 0.500000 0.000000 0.000000 0.000000
1 1 1 4 1.000000 123.760279 24.071597 -5.642100 0.500000 0.000000 0.000000 0.000000
1 1 1 4 1.000000 123.763230 24.071582 -1.855600 0.500000 0.000000 0.000000 0.000000
1 1 1 4 1.000000 123.766181 24.071567 -3.748300 0.500000 0.000000 0.000000 0.000000
1 1 1 4 1.000000 123.769132 24.071553 -1.807700 0.500000 0.000000 0.000000 0.000000
1 1 1 4 1.000000 123.789788 24.071447 -1.522200 0.500000 0.000000 0.000000 0.000000
1 1 1 4 1.000000 123.792739 24.071432 -6.851000 0.500000 0.000000 0.000000 0.000000
1 1 1 4 1.000000 123.795690 24.071417 -15.935000 0.500000 0.000000 0.000000 0.000000
1 1 1 4 1.000000 123.798641 24.071401 -20.323000 0.500000 0.000000 0.000000 0.000000
1 1 1 4 1.000000 123.801592 24.071386 -27.586000 0.500000 0.000000 0.000000 0.000000
1 1 1 4 1.000000 123.713079 24.074534 -25.380000 0.500000 0.000000 0.000000 0.000000
1 1 1 4 1.000000 123.716030 24.074520 -20.935000 0.500000 0.000000 0.000000 0.000000
1 1 1 4 1.000000 123.718981 24.074506 -16.168000 0.500000 0.000000 0.000000 0.000000
1 1 1 4 1.000000 123.721932 24.074492 -11.712000 0.500000 0.000000 0.000000 0.000000
1 1 1 4 1.000000 123.724883 24.074478 -9.300000 0.500000 0.000000 0.000000 0.000000
1 1 1 4 1.000000 123.727834 24.074464 -9.800000 0.500000 0.000000 0.000000 0.000000
1 1 1 4 1.000000 123.730785 24.074450 -11.367000 0.500000 0.000000 0.000000 0.000000
1 1 1 4 1.000000 123.733736 24.074436 -14.209000 0.500000 0.000000 0.000000 0.000000
1 1 1 4 1.000000 123.736687 24.074422 -16.856000 0.500000 0.000000 0.000000 0.000000
1 1 1 4 1.000000 123.739638 24.074408 -18.925000 0.500000 0.000000 0.000000 0.000000
1 1 1 4 1.000000 123.742589 24.074393 -21.822000 0.500000 0.000000 0.000000 0.000000
1 1 1 4 1.000000 123.745540 24.074379 -23.594000 0.500000 0.000000 0.000000 0.000000
1 1 1 4 1.000000 123.748491 24.074365 -24.220000 0.500000 0.000000 0.000000 0.000000
1 1 1 4 1.000000 123.751442 24.074350 -25.608000 0.500000 0.000000 0.000000 0.000000
1 1 1 4 1.000000 123.754393 24.074336 -19.819000 0.500000 0.000000 0.000000 0.000000
1 1 1 4 1.000000 123.757344 24.074321 -12.368000 0.500000 0.000000 0.000000 0.000000
1 1 1 4 1.000000 123.760295 24.074306 -8.508300 0.500000 0.000000 0.000000 0.000000
1 1 1 4 1.000000 123.763246 24.074292 -7.603000 0.500000 0.000000 0.000000 0.000000
1 1 1 4 1.000000 123.766197 24.074277 -8.638500 0.500000 0.000000 0.000000 0.000000
1 1 1 4 1.000000 123.769148 24.074262 -9.938000 0.500000 0.000000 0.000000 0.000000
1 1 1 4 1.000000 123.772099 24.074247 -7.425000 0.500000 0.000000 0.000000 0.000000
1 1 1 4 1.000000 123.775050 24.074232 -6.331300 0.500000 0.000000 0.000000 0.000000
1 1 1 4 1.000000 123.778001 24.074217 -6.724200 0.500000 0.000000 0.000000 0.000000
1 1 1 4 1.000000 123.780952 24.074202 -8.883300 0.500000 0.000000 0.000000 0.000000
1 1 1 4 1.000000 123.783903 24.074187 -9.061900 0.500000 0.000000 0.000000 0.000000
1 1 1 4 1.000000 123.786854 24.074172 -23.923000 0.500000 0.000000 0.000000 0.000000
1 1 1 4 1.000000 123.707192 24.077271 -26.903000 0.500000 0.000000 0.000000 0.000000
1 1 1 4 1.000000 123.710143 24.077257 -27.258000 0.500000 0.000000 0.000000 0.000000
1 1 1 4 1.000000 123.713094 24.077243 -24.070000 0.500000 0.000000 0.000000 0.000000
1 1 1 4 1.000000 123.716045 24.077229 -17.337000 0.500000 0.000000 0.000000 0.000000
1 1 1 4 1.000000 123.718997 24.077216 -12.090000 0.500000 0.000000 0.000000 0.000000
1 1 1 4 1.000000 123.721948 24.077202 -9.563000 0.500000 0.000000 0.000000 0.000000
1 1 1 4 1.000000 123.724899 24.077188 -7.487500 0.500000 0.000000 0.000000 0.000000
1 1 1 4 1.000000 123.727850 24.077174 -7.754500 0.500000 0.000000 0.000000 0.000000
1 1 1 4 1.000000 123.730801 24.077160 -10.958000 0.500000 0.000000 0.000000 0.000000
1 1 1 4 1.000000 123.733752 24.077145 -15.110000 0.500000 0.000000 0.000000 0.000000
1 1 1 4 1.000000 123.736703 24.077131 -17.443000 0.500000 0.000000 0.000000 0.000000
1 1 1 4 1.000000 123.739654 24.077117 -19.590000 0.500000 0.000000 0.000000 0.000000
1 1 1 4 1.000000 123.742605 24.077103 -26.647000 0.500000 0.000000 0.000000 0.000000
1 1 1 4 1.000000 123.745556 24.077088 -29.912000 0.500000 0.000000 0.000000 0.000000
1 1 1 4 1.000000 123.760311 24.077016 -24.685000 0.500000 0.000000 0.000000 0.000000
1 1 1 4 1.000000 123.763262 24.077001 -23.407000 0.500000 0.000000 0.000000 0.000000
1 1 1 4 1.000000 123.766213 24.076986 -29.118000 0.500000 0.000000 0.000000 0.000000
1 1 1 4 1.000000 123.769164 24.076972 -28.206000 0.500000 0.000000 0.000000 0.000000
1 1 1 4 1.000000 123.707207 24.079980 -27.053000 0.500000 0.000000 0.000000 0.000000
1 1 1 4 1.000000 123.710158 24.079966 -23.825000 0.500000 0.000000 0.000000 0.000000
1 1 1 4 1.000000 123.713109 24.079953 -21.785000 0.500000 0.000000 0.000000 0.000000
1 1 1 4 1.000000 123.716061 24.079939 -17.688000 0.500000 0.000000 0.000000 0.000000
1 1 1 4 1.000000 123.719012 24.079925 -12.031000 0.500000 0.000000 0.000000 0.000000
1 1 1 4 1.000000 123.721963 24.079911 -8.947100 0.500000 0.000000 0.000000 0.000000
1 1 1 4 1.000000 123.724914 24.079897 -9.081300 0.500000 0.000000 0.000000 0.000000
1 1 1 4 1.000000 123.727865 24.079883 -9.247400 0.500000 0.000000 0.000000 0.000000
1 1 1 4 1.000000 123.730816 24.079869 -11.903000 0.500000 0.000000 0.000000 0.000000
1 1 1 4 1.000000 123.733767 24.079855 -16.820000 0.500000 0.000000 0.000000 0.000000
1 1 1 4 1.000000 123.736718 24.079841 -20.842000 0.500000 0.000000 0.000000 0.000000
1 1 1 4 1.000000 123.739669 24.079826 -22.938000 0.500000 0.000000 0.000000 0.000000
1 1 1 4 1.000000 123.698368 24.082730 -28.858000 0.500000 0.000000 0.000000 0.000000
1 1 1 4 1.000000 123.701320 24.082717 -24.744000 0.500000 0.000000 0.000000 0.000000
1 1 1 4 1.000000 123.704271 24.082703 -25.224000 0.500000 0.000000 0.000000 0.000000
1 1 1 4 1.000000 123.707222 24.082689 -22.661000 0.500000 0.000000 0.000000 0.000000
1 1 1 4 1.000000 123.710173 24.082676 -21.846000 0.500000 0.000000 0.000000 0.000000
1 1 1 4 1.000000 123.713124 24.082662 -19.377000 0.500000 0.000000 0.000000 0.000000
1 1 1 4 1.000000 123.716076 24.082648 -19.022000 0.500000 0.000000 0.000000 0.000000
1 1 1 4 1.000000 123.719027 24.082634 -17.019000 0.500000 0.000000 0.000000 0.000000
1 1 1 4 1.000000 123.721978 24.082621 -12.538000 0.500000 0.000000 0.000000 0.000000
1 1 1 4 1.000000 123.724929 24.082607 -11.243000 0.500000 0.000000 0.000000 0.000000
1 1 1 4 1.000000 123.727880 24.082593 -10.363000 0.500000 0.000000 0.000000 0.000000
1 1 1 4 1.000000 123.730831 24.082578 -12.314000 0.500000 0.000000 0.000000 0.000000
1 1 1 4 1.000000 123.733783 24.082564 -19.157000 0.500000 0.000000 0.000000 0.000000
1 1 1 4 1.000000 123.736734 24.082550 -23.526000 0.500000 0.000000 0.000000 0.000000
1 1 1 4 1.000000 123.698383 24.085440 -27.998000 0.500000 0.000000 0.000000 0.000000
1 1 1 4 1.000000 123.701334 24.085426 -25.249000 0.500000 0.000000 0.000000 0.000000
1 1 1 4 1.000000 123.704286 24.085413 -22.600000 0.500000 0.000000 0.000000 0.000000
1 1 1 4 1.000000 123.707237 24.085399 -21.014000 0.500000 0.000000 0.000000 0.000000
1 1 1 4 1.000000 123.710188 24.085385 -21.679000 0.500000 0.000000 0.000000 0.000000
1 1 1 4 1.000000 123.713139 24.085372 -22.846000 0.500000 0.000000 0.000000 0.000000
1 1 1 4 1.000000 123.716091 24.085358 -21.181000 0.500000 0.000000 0.000000 0.000000
1 1 1 4 1.000000 123.719042 24.085344 -17.777000 0.500000 0.000000 0.000000 0.000000
1 1 1 4 1.000000 123.721993 24.085330 -16.037000 0.500000 0.000000 0.000000 0.000000
1 1 1 4 1.000000 123.724944 24.085316 -15.628000 0.500000 0.000000 0.000000 0.000000
1 1 1 4 1.000000 123.727896 24.085302 -15.026000 0.500000 0.000000 0.000000 0.000000
1 1 1 4 1.000000 123.730847 24.085288 -17.300000 0.500000 0.000000 0.000000 0.000000
1 1 1 4 1.000000 123.733798 24.085274 -21.346000 0.500000 0.000000 0.000000 0.000000
1 1 1 4 1.000000 123.698398 24.088149 -27.883000 0.500000 0.000000 0.000000 0.000000
1 1 1 4 1.000000 123.701349 24.088136 -24.443000 0.500000 0.000000 0.000000 0.000000
1 1 1 4 1.000000 123.704300 24.088122 -22.300000 0.500000 0.000000 0.000000 0.000000
1 1 1 4 1.000000 123.707252 24.088108 -21.653000 0.500000 0.000000 0.000000 0.000000
1 1 1 4 1.000000 123.710203 24.088095 -22.744000 0.500000 0.000000 0.000000 0.000000
1 1 1 4 1.000000 123.713154 24.088081 -24.480000 0.500000 0.000000 0.000000 0.000000
1 1 1 4 1.000000 123.716106 24.088067 -26.662000 0.500000 0.000000 0.000000 0.000000
1 1 1 4 1.000000 123.719057 24.088053 -23.959000 0.500000 0.000000 0.000000 0.000000
1 1 1 4 1.000000 123.722008 24.088039 -26.034000 0.500000 0.000000 0.000000 0.000000
1 1 1 4 1.000000 123.724960 24.088025 -28.808000 0.500000 0.000000 0.000000 0.000000
1 1 1 4 1.000000 123.727911 24.088011 -24.350000 0.500000 0.000000 0.000000 0.000000
1 1 1 4 1.000000 123.698412 24.090859 -29.035000 0.500000 0.000000 0.000000 0.000000
1 1 1 4 1.000000 123.701364 24.090845 -25.748000 0.500000 0.000000 0.000000 0.000000
1 1 1 4 1.000000 123.704315 24.090831 -25.100000 0.500000 0.000000 0.000000 0.000000
1 1 1 4 1.000000 123.707267 24.090818 -26.385000 0.500000 0.000000 0.000000 0.000000
1 1 1 4 1.000000 123.710218 24.090804 -26.831000 0.500000 0.000000 0.000000 0.000000
1 1 1 4 1.000000 123.713169 24.090790 -28.020000 0.500000 0.000000 0.000000 0.000000
1 1 1 4 1.000000 123.941231 24.200642 -29.300000 0.500000 0.000000 0.000000 0.000000
1 1 1 4 1.000000 123.858544 24.203839 -29.800000 0.500000 0.000000 0.000000 0.000000
1 1 1 4 1.000000 123.929436 24.203423 -28.765000 0.500000 0.000000 0.000000 0.000000
1 1 1 4 1.000000 123.932390 24.203405 -21.639000 0.500000 0.000000 0.000000 0.000000
1 1 1 4 1.000000 123.935344 24.203387 -11.621000 0.500000 0.000000 0.000000 0.000000
1 1 1 4 1.000000 123.938297 24.203369 -8.759600 0.500000 0.000000 0.000000 0.000000
1 1 1 4 1.000000 123.941251 24.203351 -15.046000 0.500000 0.000000 0.000000 0.000000
1 1 1 4 1.000000 123.855608 24.206565 -27.930000 0.500000 0.000000 0.000000 0.000000
1 1 1 4 1.000000 123.858562 24.206549 -27.550000 0.500000 0.000000 0.000000 0.000000
1 1 1 4 1.000000 123.920594 24.206186 -28.427000 0.500000 0.000000 0.000000 0.000000
1 1 1 4 1.000000 123.923548 24.206168 -16.800000 0.500000 0.000000 0.000000 0.000000
1 1 1 4 1.000000 123.926502 24.206151 -9.300000 0.500000 0.000000 0.000000 0.000000
1 1 1 4 1.000000 123.929456 24.206133 -7.185500 0.500000 0.000000 0.000000 0.000000
1 1 1 4 1.000000 123.941271 24.206060 -15.095000 0.500000 0.000000 0.000000 0.000000
1 1 1 4 1.000000 123.852672 24.209291 -28.907000 0.500000 0.000000 0.000000 0.000000
1 1 1 4 1.000000 123.855626 24.209275 -26.691000 0.500000 0.000000 0.000000 0.000000
1 1 1 4 1.000000 123.858580 24.209258 -28.958000 0.500000 0.000000 0.000000 0.000000
1 1 1 4 1.000000 123.914706 24.208931 -25.300000 0.500000 0.000000 0.000000 0.000000
1 1 1 4 1.000000 123.917659 24.208913 -18.635000 0.500000 0.000000 0.000000 0.000000
1 1 1 4 1.000000 123.920613 24.208896 -7.350400 0.500000 0.000000 0.000000 0.000000
1 1 1 4 1.000000 123.923567 24.208878 -5.819500 0.500000 0.000000 0.000000 0.000000
1 1 1 4 1.000000 123.935383 24.208806 -1.470000 0.500000 0.000000 0.000000 0.000000
1 1 1 4 1.000000 123.941291 24.208769 -15.606000 0.500000 0.000000 0.000000 0.000000
1 1 1 4 1.000000 124.009230 24.208334 -29.708000 0.500000 0.000000 0.000000 0.000000
1 1 1 4 1.000000 124.012184 24.208315 -25.548000 0.500000 0.000000 0.000000 0.000000
1 1 1 4 1.000000 124.015138 24.208295 -28.301000 0.500000 0.000000 0.000000 0.000000
1 1 1 4 1.000000 123.908817 24.211676 -29.300000 0.500000 0.000000 0.000000 0.000000
1 1 1 4 1.000000 123.911771 24.211658 -21.550000 0.500000 0.000000 0.000000 0.000000
1 1 1 4 1.000000 123.914725 24.211640 -9.300000 0.500000 0.000000 0.000000 0.000000
1 1 1 4 1.000000 123.917679 24.211623 -4.010300 0.500000 0.000000 0.000000 0.000000
1 1 1 4 1.000000 123.941311 24.211479 -14.300000 0.500000 0.000000 0.000000 0.000000
1 1 1 4 1.000000 124.000390 24.211102 -25.975000 0.500000 0.000000 0.000000 0.000000
1 1 1 4 1.000000 124.003344 24.211083 -16.800000 0.500000 0.000000 0.000000 0.000000
1 1 1 4 1.000000 124.006298 24.211063 -9.300000 0.500000 0.000000 0.000000 0.000000
1 1 1 4 1.000000 124.009252 24.211043 -6.728100 0.500000 0.000000 0.000000 0.000000
1 1 1 4 1.000000 124.012205 24.211024 -5.685300 0.500000 0.000000 0.000000 0.000000
1 1 1 4 1.000000 124.015159 24.211004 -6.578600 0.500000 0.000000 0.000000 0.000000
1 1 1 4 1.000000 124.018113 24.210985 -14.300000 0.500000 0.000000 0.000000 0.000000
1 1 1 4 1.000000 124.021067 24.210965 -29.300000 0.500000 0.000000 0.000000 0.000000
1 1 1 4 1.000000 123.905882 24.214403 -28.532000 0.500000 0.000000 0.000000 0.000000
1 1 1 4 1.000000 123.908836 24.214385 -20.300000 0.500000 0.000000 0.000000 0.000000
1 1 1 4 1.000000 123.911790 24.214367 -5.213200 0.500000 0.000000 0.000000 0.000000
1 1 1 4 1.000000 123.920652 24.214314 -1.683700 0.500000 0.000000 0.000000 0.000000
1 1 1 4 1.000000 123.941331 24.214188 -9.300000 0.500000 0.000000 0.000000 0.000000
1 1 1 4 1.000000 123.997457 24.213831 -27.649000 0.500000 0.000000 0.000000 0.000000
1 1 1 4 1.000000 124.000411 24.213811 -14.300000 0.500000 0.000000 0.000000 0.000000
1 1 1 4 1.000000 124.003365 24.213792 -5.685300 0.500000 0.000000 0.000000 0.000000
1 1 1 4 1.000000 124.021089 24.213674 -7.826900 0.500000 0.000000 0.000000 0.000000
1 1 1 4 1.000000 124.024043 24.213654 -26.800000 0.500000 0.000000 0.000000 0.000000
1 1 1 4 1.000000 123.905901 24.217112 -21.498000 0.500000 0.000000 0.000000 0.000000
1 1 1 4 1.000000 123.908855 24.217094 -6.800000 0.500000 0.000000 0.000000 0.000000
1 1 1 4 1.000000 123.914764 24.217059 -1.929800 0.500000 0.000000 0.000000 0.000000
1 1 1 4 1.000000 123.917718 24.217041 -1.391400 0.500000 0.000000 0.000000 0.000000
1 1 1 4 1.000000 123.941351 24.216897 -10.337000 0.500000 0.000000 0.000000 0.000000
1 1 1 4 1.000000 123.997478 24.216540 -19.300000 0.500000 0.000000 0.000000 0.000000
1 1 1 4 1.000000 124.000432 24.216520 -6.131000 0.500000 0.000000 0.000000 0.000000
1 1 1 4 1.000000 124.006340 24.216481 -1.664400 0.500000 0.000000 0.000000 0.000000
1 1 1 4 1.000000 124.009294 24.216462 -1.534100 0.500000 0.000000 0.000000 0.000000
1 1 1 4 1.000000 124.012248 24.216442 -1.534100 0.500000 0.000000 0.000000 0.000000
1 1 1 4 1.000000 124.015202 24.216423 -1.664400 0.500000 0.000000 0.000000 0.000000
1 1 1 4 1.000000 124.024064 24.216363 -8.323800 0.500000 0.000000 0.000000 0.000000
1 1 1 4 1.000000 124.027018 24.216343 -21.703000 0.500000 0.000000 0.000000 0.000000
1 1 1 4 1.000000 123.902966 24.219839 -27.356000 0.500000 0.000000 0.000000 0.000000
1 1 1 4 1.000000 123.905920 24.219821 -15.698000 0.500000 0.000000 0.000000 0.000000
1 1 1 4 1.000000 123.914783 24.219768 -1.297400 0.500000 0.000000 0.000000 0.000000
1 1 1 4 1.000000 123.917737 24.219751 -1.089100 0.500000 0.000000 0.000000 0.000000
1 1 1 4 1.000000 123.923645 24.219715 -1.157900 0.500000 0.000000 0.000000 0.000000
1 1 1 4 1.000000 123.935462 24.219643 -1.280000 0.500000 0.000000 0.000000 0.000000
1 1 1 4 1.000000 123.944325 24.219588 -26.968000 0.500000 0.000000 0.000000 0.000000
1 1 1 4 1.000000 123.997499 24.219249 -8.290900 0.500000 0.000000 0.000000 0.000000
1 1 1 4 1.000000 124.003407 24.219210 -1.406000 0.500000 0.000000 0.000000 0.000000
1 1 1 4 1.000000 124.006361 24.219191 -1.254300 0.500000 0.000000 0.000000 0.000000
1 1 1 4 1.000000 124.009316 24.219171 -1.195900 0.500000 0.000000 0.000000 0.000000
1 1 1 4 1.000000 124.012270 24.219151 -1.534100 0.500000 0.000000 0.000000 0.000000
1 1 1 4 1.000000 124.015224 24.219132 -1.625100 0.500000 0.000000 0.000000 0.000000
1 1 1 4 1.000000 124.018178 24.219112 -1.707000 0.500000 0.000000 0.000000 0.000000
1 1 1 4 1.000000 124.021132 24.219092 -1.493500 0.500000 0.000000 0.000000 0.000000
1 1 1 4 1.000000 124.027040 24.219053 -7.845700 0.500000 0.000000 0.000000 0.000000
1 1 1 4 1.000000 124.029994 24.219033 -14.300000 0.500000 0.000000 0.000000 0.000000
1 1 1 4 1.000000 124.032948 24.219013 -28.050000 0.500000 0.000000 0.000000 0.000000
1 1 1 4 1.000000 123.902985 24.222548 -29.300000 0.500000 0.000000 0.000000 0.000000
1 1 1 4 1.000000 123.905939 24.222531 -9.300000 0.500000 0.000000 0.000000 0.000000
1 1 1 4 1.000000 123.908894 24.222513 -5.362200 0.500000 0.000000 0.000000 0.000000
1 1 1 4 1.000000 123.911848 24.222495 -1.000000 0.500000 0.000000 0.000000 0.000000
1 1 1 4 1.000000 123.914802 24.222478 -3.114800 0.500000 0.000000 0.000000 0.000000
1 1 1 4 1.000000 123.917757 24.222460 -2.373200 0.500000 0.000000 0.000000 0.000000
1 1 1 4 1.000000 123.920711 24.222442 -1.539500 0.500000 0.000000 0.000000 0.000000
1 1 1 4 1.000000 123.923665 24.222424 -1.563300 0.500000 0.000000 0.000000 0.000000
1 1 1 4 1.000000 123.926619 24.222406 -1.225700 0.500000 0.000000 0.000000 0.000000
1 1 1 4 1.000000 123.935482 24.222352 -1.776800 0.500000 0.000000 0.000000 0.000000
1 1 1 4 1.000000 123.938436 24.222334 -1.406000 0.500000 0.000000 0.000000 0.000000
1 1 1 4 1.000000 123.944345 24.222297 -7.479300 0.500000 0.000000 0.000000 0.000000
1 1 1 4 1.000000 123.947299 24.222279 -29.300000 0.500000 0.000000 0.000000 0.000000
1 1 1 4 1.000000 123.994566 24.221977 -29.873000 0.500000 0.000000 0.000000 0.000000
1 1 1 4 1.000000 123.997520 24.221958 -6.667900 0.500000 0.000000 0.000000 0.000000
1 1 1 4 1.000000 124.003429 24.221919 -1.470300 0.500000 0.000000 0.000000 0.000000
1 1 1 4 1.000000 124.015245 24.221841 -1.821800 0.500000 0.000000 0.000000 0.000000
1 1 1 4 1.000000 124.018199 24.221821 -1.875900 0.500000 0.000000 0.000000 0.000000
1 1 1 4 1.000000 124.021154 24.221801 -1.875900 0.500000 0.000000 0.000000 0.000000
1 1 1 4 1.000000 124.024108 24.221782 -1.032100 0.500000 0.000000 0.000000 0.000000
1 1 1 4 1.000000 124.030016 24.221742 -7.697900 0.500000 0.000000 0.000000 0.000000
1 1 1 4 1.000000 124.032970 24.221722 -8.142200 0.500000 0.000000 0.000000 0.000000
1 1 1 4 1.000000 124.035924 24.221702 -16.255000 0.500000 0.000000 0.000000 0.000000
1 1 1 4 1.000000 124.038878 24.221682 -29.300000 0.500000 0.000000 0.000000 0.000000
1 1 1 4 1.000000 123.905959 24.225240 -27.997000 0.500000 0.000000 0.000000 0.000000
1 1 1 4 1.000000 123.908913 24.225222 -22.059000 0.500000 0.000000 0.000000 0.000000
1 1 1 4 1.000000 123.911867 24.225205 -14.300000 0.500000 0.000000 0.000000 0.000000
1 1 1 4 1.000000 123.914822 24.225187 -5.378500 0.500000 0.000000 0.000000 0.000000
1 1 1 4 1.000000 123.917776 24.225169 -3.446000 0.500000 0.000000 0.000000 0.000000
1 1 1 4 1.000000 123.920730 24.225151 -2.669500 0.500000 0.000000 0.000000 0.000000
1 1 1 4 1.000000 123.923685 24.225133 -1.703000 0.500000 0.000000 0.000000 0.000000
1 1 1 4 1.000000 123.926639 24.225115 -1.703000 0.500000 0.000000 0.000000 0.000000
1 1 1 4 1.000000 123.929593 24.225097 -1.633100 0.500000 0.000000 0.000000 0.000000
1 1 1 4 1.000000 123.932547 24.225079 -2.316800 0.500000 0.000000 0.000000 0.000000
1 1 1 4 1.000000 123.935502 24.225061 -1.797100 0.500000 0.000000 0.000000 0.000000
1 1 1 4 1.000000 123.938456 24.225043 -2.233600 0.500000 0.000000 0.000000 0.000000
1 1 1 4 1.000000 123.947319 24.224988 -10.550000 0.500000 0.000000 0.000000 0.000000
1 1 1 4 1.000000 123.950273 24.224970 -26.787000 0.500000 0.000000 0.000000 0.000000
1 1 1 4 1.000000 123.953227 24.224951 -29.300000 0.500000 0.000000 0.000000 0.000000
1 1 1 4 1.000000 123.994587 24.224687 -24.300000 0.500000 0.000000 0.000000 0.000000
1 1 1 4 1.000000 124.000496 24.224648 -1.585700 0.500000 0.000000 0.000000 0.000000
1 1 1 4 1.000000 124.021175 24.224511 -2.117000 0.500000 0.000000 0.000000 0.000000
1 1 1 4 1.000000 124.024129 24.224491 -2.004600 0.500000 0.000000 0.000000 0.000000
1 1 1 4 1.000000 124.027084 24.224471 -1.848800 0.500000 0.000000 0.000000 0.000000
1 1 1 4 1.000000 124.030038 24.224451 -2.000000 0.500000 0.000000 0.000000 0.000000
1 1 1 4 1.000000 124.035946 24.224411 -6.375300 0.500000 0.000000 0.000000 0.000000
1 1 1 4 1.000000 124.038900 24.224391 -9.742000 0.500000 0.000000 0.000000 0.000000
1 1 1 4 1.000000 124.041854 24.224371 -22.199000 0.500000 0.000000 0.000000 0.000000
1 1 1 4 1.000000 123.911887 24.227914 -19.300000 0.500000 0.000000 0.000000 0.000000
1 1 1 4 1.000000 123.914841 24.227896 -14.300000 0.500000 0.000000 0.000000 0.000000
1 1 1 4 1.000000 123.917795 24.227878 -6.429100 0.500000 0.000000 0.000000 0.000000
1 1 1 4 1.000000 123.920750 24.227860 -3.860400 0.500000 0.000000 0.000000 0.000000
1 1 1 4 1.000000 123.923704 24.227843 -1.882700 0.500000 0.000000 0.000000 0.000000
1 1 1 4 1.000000 123.926658 24.227825 -2.028000 0.500000 0.000000 0.000000 0.000000
1 1 1 4 1.000000 123.929613 24.227807 -1.774300 0.500000 0.000000 0.000000 0.000000
1 1 1 4 1.000000 123.932567 24.227789 -1.563300 0.500000 0.000000 0.000000 0.000000
1 1 1 4 1.000000 123.950293 24.227679 -6.017900 0.500000 0.000000 0.000000 0.000000
1 1 1 4 1.000000 123.953248 24.227660 -9.754000 0.500000 0.000000 0.000000 0.000000
1 1 1 4 1.000000 123.956202 24.227642 -16.985000 0.500000 0.000000 0.000000 0.000000
1 1 1 4 1.000000 123.959156 24.227623 -26.800000 0.500000 0.000000 0.000000 0.000000
1 1 1 4 1.000000 123.994608 24.227396 -14.300000 0.500000 0.000000 0.000000 0.000000
1 1 1 4 1.000000 124.024151 24.227200 -2.190400 0.500000 0.000000 0.000000 0.000000
1 1 1 4 1.000000 124.027105 24.227180 -2.035100 0.500000 0.000000 0.000000 0.000000
1 1 1 4 1.000000 124.030060 24.227160 -1.382400 0.500000 0.000000 0.000000 0.000000
1 1 1 4 1.000000 124.033014 24.227140 -2.000000 0.500000 0.000000 0.000000 0.000000
1 1 1 4 1.000000 124.038922 24.227100 -6.375300 0.500000 0.000000 0.000000 0.000000
1 1 1 4 1.000000 124.041877 24.227080 -9.672000 0.500000 0.000000 0.000000 0.000000
1 1 1 4 1.000000 124.044831 24.227059 -29.300000 0.500000 0.000000 0.000000 0.000000
1 1 1 4 1.000000 123.911906 24.230623 -16.974000 0.500000 0.000000 0.000000 0.000000
1 1 1 4 1.000000 123.914860 24.230605 -20.562000 0.500000 0.000000 0.000000 0.000000
1 1 1 4 1.000000 123.917815 24.230588 -13.052000 0.500000 0.000000 0.000000 0.000000
1 1 1 4 1.000000 123.920769 24.230570 -9.800000 0.500000 0.000000 0.000000 0.000000
1 1 1 4 1.000000 123.923724 24.230552 -8.300000 0.500000 0.000000 0.000000 0.000000
1 1 1 4 1.000000 123.926678 24.230534 -6.076800 0.500000 0.000000 0.000000 0.000000
1 1 1 4 1.000000 123.929633 24.230516 -1.845500 0.500000 0.000000 0.000000 0.000000
1 1 1 4 1.000000 123.932587 24.230498 -1.703000 0.500000 0.000000 0.000000 0.000000
1 1 1 4 1.000000 123.959177 24.230333 -7.139400 0.500000 0.000000 0.000000 0.000000
1 1 1 4 1.000000 123.962131 24.230314 -24.300000 0.500000 0.000000 0.000000 0.000000
1 1 1 4 1.000000 123.994629 24.230105 -2.135600 0.500000 0.000000 0.000000 0.000000
1 1 1 4 1.000000 124.030081 24.229869 -2.135600 0.500000 0.000000 0.000000 0.000000
1 1 1 4 1.000000 124.033036 24.229849 -1.875900 0.500000 0.000000 0.000000 0.000000
1 1 1 4 1.000000 124.038944 24.229809 -4.490200 0.500000 0.000000 0.000000 0.000000
1 1 1 4 1.000000 124.041899 24.229789 -7.550000 0.500000 0.000000 0.000000 0.000000
1 1 1 4 1.000000 124.044853 24.229769 -14.300000 0.500000 0.000000 0.000000 0.000000
1 1 1 4 1.000000 124.047807 24.229748 -24.796000 0.500000 0.000000 0.000000 0.000000
1 1 1 4 1.000000 123.908971 24.233350 -19.300000 0.500000 0.000000 0.000000 0.000000
1 1 1 4 1.000000 123.911925 24.233332 -21.660000 0.500000 0.000000 0.000000 0.000000
1 1 1 4 1.000000 123.914880 24.233315 -19.050000 0.500000 0.000000 0.000000 0.000000
1 1 1 4 1.000000 123.917834 24.233297 -15.068000 0.500000 0.000000 0.000000 0.000000
1 1 1 4 1.000000 123.920789 24.233279 -13.300000 0.500000 0.000000 0.000000 0.000000
1 1 1 4 1.000000 123.923743 24.233261 -8.716700 0.500000 0.000000 0.000000 0.000000
1 1 1 4 1.000000 123.926698 24.233243 -1.703000 0.500000 0.000000 0.000000 0.000000
1 1 1 4 1.000000 123.929652 24.233225 -1.703000 0.500000 0.000000 0.000000 0.000000
1 1 1 4 1.000000 123.932607 24.233207 -1.703000 0.500000 0.000000 0.000000 0.000000
1 1 1 4 1.000000 123.935561 24.233189 -1.703000 0.500000 0.000000 0.000000 0.000000
1 1 1 4 1.000000 123.962151 24.233023 -6.847900 0.500000 0.000000 0.000000 0.000000
1 1 1 4 1.000000 123.991696 24.232833 -9.892000 0.500000 0.000000 0.000000 0.000000
1 1 1 4 1.000000 124.030103 24.232578 -2.253900 0.500000 0.000000 0.000000 0.000000
1 1 1 4 1.000000 124.033057 24.232558 -2.135600 0.500000 0.000000 0.000000 0.000000
1 1 1 4 1.000000 124.038966 24.232518 -4.778500 0.500000 0.000000 0.000000 0.000000
1 1 1 4 1.000000 124.041921 24.232498 -7.845700 0.500000 0.000000 0.000000 0.000000
1 1 1 4 1.000000 124.044875 24.232478 -9.188100 0.500000 0.000000 0.000000 0.000000
1 1 1 4 1.000000 124.047829 24.232457 -16.883000 0.500000 0.000000 0.000000 0.000000
1 1 1 4 1.000000 124.050784 24.232437 -28.950000 0.500000 0.000000 0.000000 0.000000
1 1 1 4 1.000000 123.908990 24.236059 -18.633000 0.500000 0.000000 0.000000 0.000000
1 1 1 4 1.000000 123.911944 24.236042 -21.165000 0.500000 0.000000 0.000000 0.000000
1 1 1 4 1.000000 123.914899 24.236024 -19.300000 0.500000 0.000000 0.000000 0.000000
1 1 1 4 1.000000 123.917854 24.236006 -18.800000 0.500000 0.000000 0.000000 0.000000
1 1 1 4 1.000000 123.920808 24.235988 -14.773000 0.500000 0.000000 0.000000 0.000000
1 1 1 4 1.000000 123.923763 24.235970 -9.507000 0.500000 0.000000 0.000000 0.000000
1 1 1 4 1.000000 123.926717 24.235952 -6.798000 0.500000 0.000000 0.000000 0.000000
1 1 1 4 1.000000 123.929672 24.235934 -5.711800 0.500000 0.000000 0.000000 0.000000
1 1 1 4 1.000000 123.932626 24.235916 -5.300000 0.500000 0.000000 0.000000 0.000000
1 1 1 4 1.000000 123.935581 24.235898 -5.300000 0.500000 0.000000 0.000000 0.000000
1 1 1 4 1.000000 123.938536 24.235880 -2.070000 0.500000 0.000000 0.000000 0.000000
1 1 1 4 1.000000 123.965126 24.235714 -24.300000 0.500000 0.000000 0.000000 0.000000
1 1 1 4 1.000000 123.988762 24.235562 -19.300000 0.500000 0.000000 0.000000 0.000000
1 1 1 4 1.000000 124.030125 24.235288 -2.190400 0.500000 0.000000 0.000000 0.000000
1 1 1 4 1.000000 124.033079 24.235268 -2.253900 0.500000 0.000000 0.000000 0.000000
1 1 1 4 1.000000 124.038988 24.235227 -2.914000 0.500000 0.000000 0.000000 0.000000
1 1 1 4 1.000000 124.041943 24.235207 -8.142200 0.500000 0.000000 0.000000 0.000000
1 1 1 4 1.000000 124.044897 24.235187 -13.300000 0.500000 0.000000 0.000000 0.000000
1 1 1 4 1.000000 124.047852 24.235167 -14.300000 0.500000 0.000000 0.000000 0.000000
1 1 1 4 1.000000 124.050806 24.235146 -23.744000 0.500000 0.000000 0.000000 0.000000
1 1 1 4 1.000000 123.897191 24.238839 -28.300000 0.500000 0.000000 0.000000 0.000000
1 1 1 4 1.000000 123.900145 24.238821 -27.138000 0.500000 0.000000 0.000000 0.000000
1 1 1 4 1.000000 123.903100 24.238804 -24.494000 0.500000 0.000000 0.000000 0.000000
1 1 1 4 1.000000 123.906055 24.238786 -24.122000 0.500000 0.000000 0.000000 0.000000
1 1 1 4 1.000000 123.909009 24.238768 -22.300000 0.500000 0.000000 0.000000 0.000000
1 1 1 4 1.000000 123.911964 24.238751 -21.300000 0.500000 0.000000 0.000000 0.000000
1 1 1 4 1.000000 123.914918 24.238733 -17.703000 0.500000 0.000000 0.000000 0.000000
1 1 1 4 1.000000 123.917873 24.238715 -14.300000 0.500000 0.000000 0.000000 0.000000
1 1 1 4 1.000000 123.920828 24.238697 -9.300000 0.500000 0.000000 0.000000 0.000000
1 1 1 4 1.000000 123.923782 24.238680 -10.050000 0.500000 0.000000 0.000000 0.000000
1 1 1 4 1.000000 123.926737 24.238662 -7.393800 0.500000 0.000000 0.000000 0.000000
1 1 1 4 1.000000 123.929692 24.238644 -6.530100 0.500000 0.000000 0.000000 0.000000
1 1 1 4 1.000000 123.932646 24.238625 -5.679700 0.500000 0.000000 0.000000 0.000000
1 1 1 4 1.000000 123.935601 24.238607 -5.300000 0.500000 0.000000 0.000000 0.000000
1 1 1 4 1.000000 123.938555 24.238589 -2.210500 0.500000 0.000000 0.000000 0.000000
1 1 1 4 1.000000 123.941510 24.238571 -2.070000 0.500000 0.000000 0.000000 0.000000
1 1 1 4 1.000000 123.965147 24.238423 -18.813000 0.500000 0.000000 0.000000 0.000000
1 1 1 4 1.000000 123.985829 24.238290 -19.300000 0.500000 0.000000 0.000000 0.000000
1 1 1 4 1.000000 123.988783 24.238271 -1.563900 0.500000 0.000000 0.000000 0.000000
1 1 1 4 1.000000 123.991738 24.238252 -1.973600 0.500000 0.000000 0.000000 0.000000
1 1 1 4 1.000000 124.033101 24.237977 -2.293200 0.500000 0.000000 0.000000 0.000000
1 1 1 4 1.000000 124.039010 24.237936 -1.089700 0.500000 0.000000 0.000000 0.000000
1 1 1 4 1.000000 124.041965 24.237916 -7.845700 0.500000 0.000000 0.000000 0.000000
1 1 1 4 1.000000 124.044919 24.237896 -16.971000 0.500000 0.000000 0.000000 0.000000
1 1 1 4 1.000000 124.047874 24.237876 -14.300000 0.500000 0.000000 0.000000 0.000000
1 1 1 4 1.000000 124.050828 24.237855 -21.800000 0.500000 0.000000 0.000000 0.000000
1 1 1 4 1.000000 123.861753 24.241753 -22.126000 0.500000 0.000000 0.000000 0.000000
1 1 1 4 1.000000 123.864708 24.241736 -10.300000 0.500000 0.000000 0.000000 0.000000
1 1 1 4 1.000000 123.867662 24.241719 -8.744400 0.500000 0.000000 0.000000 0.000000
1 1 1 4 1.000000 123.870617 24.241702 -14.485000 0.500000 0.000000 0.000000 0.000000
1 1 1 4 1.000000 123.873572 24.241685 -21.616000 0.500000 0.000000 0.000000 0.000000
1 1 1 4 1.000000 123.876527 24.241668 -27.619000 0.500000 0.000000 0.000000 0.000000
1 1 1 4 1.000000 123.894255 24.241565 -25.550000 0.500000 0.000000 0.000000 0.000000
1 1 1 4 1.000000 123.903119 24.241513 -29.883000 0.500000 0.000000 0.000000 0.000000
1 1 1 4 1.000000 123.906074 24.241495 -19.717000 0.500000 0.000000 0.000000 0.000000
1 1 1 4 1.000000 123.909028 24.241478 -25.300000 0.500000 0.000000 0.000000 0.000000
1 1 1 4 1.000000 123.911983 24.241460 -20.300000 0.500000 0.000000 0.000000 0.000000
1 1 1 4 1.000000 123.914938 24.241442 -15.774000 0.500000 0.000000 0.000000 0.000000
1 1 1 4 1.000000 123.917892 24.241425 -11.964000 0.500000 0.000000 0.000000 0.000000
1 1 1 4 1.000000 123.920847 24.241407 -5.076100 0.500000 0.000000 0.000000 0.000000
1 1 1 4 1.000000 123.923802 24.241389 -3.890700 0.500000 0.000000 0.000000 0.000000
1 1 1 4 1.000000 123.926757 24.241371 -2.712100 0.500000 0.000000 0.000000 0.000000
1 1 1 4 1.000000 123.929711 24.241353 -2.735200 0.500000 0.000000 0.000000 0.000000
1 1 1 4 1.000000 123.932666 24.241335 -1.845500 0.500000 0.000000 0.000000 0.000000
1 1 1 4 1.000000 123.935621 24.241317 -5.565400 0.500000 0.000000 0.000000 0.000000
1 1 1 4 1.000000 123.938575 24.241298 -5.954400 0.500000 0.000000 0.000000 0.000000
1 1 1 4 1.000000 123.941530 24.241280 -2.070000 0.500000 0.000000 0.000000 0.000000
1 1 1 4 1.000000 123.944485 24.241262 -2.070000 0.500000 0.000000 0.000000 0.000000
1 1 1 4 1.000000 123.956303 24.241188 -1.156100 0.500000 0.000000 0.000000 0.000000
1 1 1 4 1.000000 123.962213 24.241151 -5.093400 0.500000 0.000000 0.000000 0.000000
1 1 1 4 1.000000 123.965167 24.241132 -27.294000 0.500000 0.000000 0.000000 0.000000
1 1 1 4 1.000000 123.982895 24.241019 -27.053000 0.500000 0.000000 0.000000 0.000000
1 1 1 4 1.000000 123.985850 24.240999 -5.937900 0.500000 0.000000 0.000000 0.000000
1 1 1 4 1.000000 123.988804 24.240980 -1.563900 0.500000 0.000000 0.000000 0.000000
1 1 1 4 1.000000 124.033123 24.240686 -3.717800 0.500000 0.000000 0.000000 0.000000
1 1 1 4 1.000000 124.036078 24.240666 -1.323100 0.500000 0.000000 0.000000 0.000000
1 1 1 4 1.000000 124.041987 24.240625 -7.300000 0.500000 0.000000 0.000000 0.000000
1 1 1 4 1.000000 124.044941 24.240605 -20.300000 0.500000 0.000000 0.000000 0.000000
1 1 1 4 1.000000 124.047896 24.240585 -17.300000 0.500000 0.000000 0.000000 0.000000
1 1 1 4 1.000000 124.050850 24.240564 -26.309000 0.500000 0.000000 0.000000 0.000000
1 1 1 4 1.000000 123.858816 24.244479 -18.573000 0.500000 0.000000 0.000000 0.000000
1 1 1 4 1.000000 123.861771 24.244462 -5.700000 0.500000 0.000000 0.000000 0.000000
1 1 1 4 1.000000 123.867681 24.244429 -2.238000 0.500000 0.000000 0.000000 0.000000
1 1 1 4 1.000000 123.870636 24.244412 -1.300000 0.500000 0.000000 0.000000 0.000000
1 1 1 4 1.000000 123.873590 24.244395 -6.375300 0.500000 0.000000 0.000000 0.000000
1 1 1 4 1.000000 123.876545 24.244378 -20.863000 0.500000 0.000000 0.000000 0.000000
1 1 1 4 1.000000 123.879500 24.244361 -17.534000 0.500000 0.000000 0.000000 0.000000
1 1 1 4 1.000000 123.885409 24.244326 -23.675000 0.500000 0.000000 0.000000 0.000000
1 1 1 4 1.000000 123.888364 24.244309 -23.784000 0.500000 0.000000 0.000000 0.000000
1 1 1 4 1.000000 123.891319 24.244292 -9.300000 0.500000 0.000000 0.000000 0.000000
1 1 1 4 1.000000 123.894274 24.244275 -3.625400 0.500000 0.000000 0.000000 0.000000
1 1 1 4 1.000000 123.897229 24.244257 -2.751700 0.500000 0.000000 0.000000 0.000000
1 1 1 4 1.000000 123.900183 24.244240 -19.300000 0.500000 0.000000 0.000000 0.000000
1 1 1 4 1.000000 123.903138 24.244222 -25.271000 0.500000 0.000000 0.000000 0.000000
1 1 1 4 1.000000 123.906093 24.244205 -19.301000 0.500000 0.000000 0.000000 0.000000
1 1 1 4 1.000000 123.909048 24.244187 -19.300000 0.500000 0.000000 0.000000 0.000000
1 1 1 4 1.000000 123.912002 24.244169 -16.800000 0.500000 0.000000 0.000000 0.000000
1 1 1 4 1.000000 123.914957 24.244152 -15.627000 0.500000 0.000000 0.000000 0.000000
1 1 1 4 1.000000 123.917912 24.244134 -14.282000 0.500000 0.000000 0.000000 0.000000
1 1 1 4 1.000000 123.920867 24.244116 -10.467000 0.500000 0.000000 0.000000 0.000000
1 1 1 4 1.000000 123.923821 24.244098 -4.911700 0.500000 0.000000 0.000000 0.000000
1 1 1 4 1.000000 123.926776 24.244080 -1.442000 0.500000 0.000000 0.000000 0.000000
1 1 1 4 1.000000 123.929731 24.244062 -1.703000 0.500000 0.000000 0.000000 0.000000
1 1 1 4 1.000000 123.932686 24.244044 -1.774300 0.500000 0.000000 0.000000 0.000000
1 1 1 4 1.000000 123.935640 24.244026 -1.845500 0.500000 0.000000 0.000000 0.000000
1 1 1 4 1.000000 123.938595 24.244008 -5.363600 0.500000 0.000000 0.000000 0.000000
1 1 1 4 1.000000 123.941550 24.243989 -1.888800 0.500000 0.000000 0.000000 0.000000
1 1 1 4 1.000000 123.944505 24.243971 -2.070000 0.500000 0.000000 0.000000 0.000000
1 1 1 4 1.000000 123.947459 24.243953 -2.001100 0.500000 0.000000 0.000000 0.000000
1 1 1 4 1.000000 123.950414 24.243934 -1.323100 0.500000 0.000000 0.000000 0.000000
1 1 1 4 1.000000 123.953369 24.243916 -1.932200 0.500000 0.000000 0.000000 0.000000
1 1 1 4 1.000000 123.956323 24.243897 -9.300000 0.500000 0.000000 0.000000 0.000000
1 1 1 4 1.000000 123.959278 24.243879 -17.240000 0.500000 0.000000 0.000000 0.000000
1 1 1 4 1.000000 123.982916 24.243728 -24.300000 0.500000 0.000000 0.000000 0.000000
1 1 1 4 1.000000 123.985870 24.243709 -4.778500 0.500000 0.000000 0.000000 0.000000
1 1 1 4 1.000000 123.988825 24.243689 -2.004600 0.500000 0.000000 0.000000 0.000000
1 1 1 4 1.000000 124.030190 24.243415 -2.317500 0.500000 0.000000 0.000000 0.000000
1 1 1 4 1.000000 124.033145 24.243395 -5.910600 0.500000 0.000000 0.000000 0.000000
1 1 1 4 1.000000 124.036100 24.243375 -1.518400 0.500000 0.000000 0.000000 0.000000
1 1 1 4 1.000000 124.039054 24.243355 -1.382400 0.500000 0.000000 0.000000 0.000000
1 1 1 4 1.000000 124.042009 24.243335 -8.300000 0.500000 0.000000 0.000000 0.000000
1 1 1 4 1.000000 124.044963 24.243314 -21.300000 0.500000 0.000000 0.000000 0.000000
1 1 1 4 1.000000 124.047918 24.243294 -22.537000 0.500000 0.000000 0.000000 0.000000
1 1 1 4 1.000000 123.855880 24.247205 -23.050000 0.500000 0.000000 0.000000 0.000000
1 1 1 4 1.000000 123.858835 24.247188 -3.510500 0.500000 0.000000 0.000000 0.000000
1 1 1 4 1.000000 123.879519 24.247070 -1.323100 0.500000 0.000000 0.000000 0.000000
1 1 1 4 1.000000 123.888383 24.247018 -2.060400 0.500000 0.000000 0.000000 0.000000
1 1 1 4 1.000000 123.900202 24.246949 -14.300000 0.500000 0.000000 0.000000 0.000000
1 1 1 4 1.000000 123.903157 24.246931 -17.231000 0.500000 0.000000 0.000000 0.000000
1 1 1 4 1.000000 123.906112 24.246914 -14.300000 0.500000 0.000000 0.000000 0.000000
1 1 1 4 1.000000 123.909067 24.246896 -16.243000 0.500000 0.000000 0.000000 0.000000
1 1 1 4 1.000000 123.912022 24.246879 -15.300000 0.500000 0.000000 0.000000 0.000000
1 1 1 4 1.000000 123.914977 24.246861 -12.725000 0.500000 0.000000 0.000000 0.000000
1 1 1 4 1.000000 123.917931 24.246843 -13.300000 0.500000 0.000000 0.000000 0.000000
1 1 1 4 1.000000 123.920886 24.246825 -12.550000 0.500000 0.000000 0.000000 0.000000
1 1 1 4 1.000000 123.923841 24.246807 -9.300000 0.500000 0.000000 0.000000 0.000000
1 1 1 4 1.000000 123.926796 24.246789 -1.918200 0.500000 0.000000 0.000000 0.000000
1 1 1 4 1.000000 123.929751 24.246771 -5.901200 0.500000 0.000000 0.000000 0.000000
1 1 1 4 1.000000 123.932705 24.246753 -5.425000 0.500000 0.000000 0.000000 0.000000
1 1 1 4 1.000000 123.935660 24.246735 -1.845500 0.500000 0.000000 0.000000 0.000000
1 1 1 4 1.000000 123.938615 24.246717 -1.703000 0.500000 0.000000 0.000000 0.000000
1 1 1 4 1.000000 123.941570 24.246699 -5.758500 0.500000 0.000000 0.000000 0.000000
1 1 1 4 1.000000 123.944525 24.246680 -6.350200 0.500000 0.000000 0.000000 0.000000
1 1 1 4 1.000000 123.947479 24.246662 -6.327800 0.500000 0.000000 0.000000 0.000000
1 1 1 4 1.000000 123.950434 24.246643 -6.605800 0.500000 0.000000 0.000000 0.000000
1 1 1 4 1.000000 123.953389 24.246625 -10.300000 0.500000 0.000000 0.000000 0.000000
1 1 1 4 1.000000 123.956344 24.246606 -23.614000 0.500000 0.000000 0.000000 0.000000
1 1 1 4 1.000000 123.982937 24.246437 -26.268000 0.500000 0.000000 0.000000 0.000000
1 1 1 4 1.000000 123.985891 24.246418 -6.521600 0.500000 0.000000 0.000000 0.000000
1 1 1 4 1.000000 123.988846 24.246399 -2.126300 0.500000 0.000000 0.000000 0.000000
1 1 1 4 1.000000 124.030212 24.246124 -4.600300 0.500000 0.000000 0.000000 0.000000
1 1 1 4 1.000000 124.033167 24.246104 -3.300000 0.500000 0.000000 0.000000 0.000000
1 1 1 4 1.000000 124.036122 24.246084 -1.032100 0.500000 0.000000 0.000000 0.000000
1 1 1 4 1.000000 124.039076 24.246064 -2.004600 0.500000 0.000000 0.000000 0.000000
1 1 1 4 1.000000 124.042031 24.246044 -18.865000 0.500000 0.000000 0.000000 0.000000
1 1 1 4 1.000000 124.044986 24.246023 -21.663000 0.500000 0.000000 0.000000 0.000000
1 1 1 4 1.000000 124.047940 24.246003 -25.300000 0.500000 0.000000 0.000000 0.000000
1 1 1 4 1.000000 124.050895 24.245983 -29.300000 0.500000 0.000000 0.000000 0.000000
1 1 1 4 1.000000 124.095215 24.245670 -28.050000 0.500000 0.000000 0.000000 0.000000
1 1 1 4 1.000000 124.098169 24.245649 -23.050000 0.500000 0.000000 0.000000 0.000000
1 1 1 4 1.000000 124.101124 24.245628 -22.847000 0.500000 0.000000 0.000000 0.000000
1 1 1 4 1.000000 124.104079 24.245606 -16.800000 0.500000 0.000000 0.000000 0.000000
1 1 1 4 1.000000 124.107033 24.245585 -10.567000 0.500000 0.000000 0.000000 0.000000
1 1 1 4 1.000000 124.109988 24.245563 -12.022000 0.500000 0.000000 0.000000 0.000000
1 1 1 4 1.000000 124.112942 24.245542 -19.300000 0.500000 0.000000 0.000000 0.000000
1 1 1 4 1.000000 124.115897 24.245520 -24.300000 0.500000 0.000000 0.000000 0.000000
1 1 1 4 1.000000 123.855898 24.249914 -6.966700 0.500000 0.000000 0.000000 0.000000
1 1 1 4 1.000000 123.870672 24.249830 -1.200000 0.500000 0.000000 0.000000 0.000000
1 1 1 4 1.000000 123.873627 24.249813 -1.200000 0.500000 0.000000 0.000000 0.000000
1 1 1 4 1.000000 123.897267 24.249676 -1.470000 0.500000 0.000000 0.000000 0.000000
1 1 1 4 1.000000 123.900222 24.249658 -12.800000 0.500000 0.000000 0.000000 0.000000
1 1 1 4 1.000000 123.903176 24.249641 -14.330000 0.500000 0.000000 0.000000 0.000000
1 1 1 4 1.000000 123.906131 24.249623 -14.300000 0.500000 0.000000 0.000000 0.000000
1 1 1 4 1.000000 123.909086 24.249606 -14.300000 0.500000 0.000000 0.000000 0.000000
1 1 1 4 1.000000 123.912041 24.249588 -14.050000 0.500000 0.000000 0.000000 0.000000
1 1 1 4 1.000000 123.914996 24.249570 -12.113000 0.500000 0.000000 0.000000 0.000000
1 1 1 4 1.000000 123.917951 24.249552 -13.106000 0.500000 0.000000 0.000000 0.000000
1 1 1 4 1.000000 123.920906 24.249534 -12.422000 0.500000 0.000000 0.000000 0.000000
1 1 1 4 1.000000 123.923861 24.249517 -10.453000 0.500000 0.000000 0.000000 0.000000
1 1 1 4 1.000000 123.926815 24.249499 -5.093400 0.500000 0.000000 0.000000 0.000000
1 1 1 4 1.000000 123.929770 24.249481 -8.300000 0.500000 0.000000 0.000000 0.000000
1 1 1 4 1.000000 123.932725 24.249462 -11.056000 0.500000 0.000000 0.000000 0.000000
1 1 1 4 1.000000 123.935680 24.249444 -7.081300 0.500000 0.000000 0.000000 0.000000
1 1 1 4 1.000000 123.938635 24.249426 -6.300000 0.500000 0.000000 0.000000 0.000000
1 1 1 4 1.000000 123.941590 24.249408 -5.300000 0.500000 0.000000 0.000000 0.000000
1 1 1 4 1.000000 123.944545 24.249390 -6.300000 0.500000 0.000000 0.000000 0.000000
1 1 1 4 1.000000 123.947499 24.249371 -7.680500 0.500000 0.000000 0.000000 0.000000
1 1 1 4 1.000000 123.950454 24.249353 -10.300000 0.500000 0.000000 0.000000 0.000000
1 1 1 4 1.000000 123.953409 24.249334 -19.300000 0.500000 0.000000 0.000000 0.000000
1 1 1 4 1.000000 123.956364 24.249316 -29.300000 0.500000 0.000000 0.000000 0.000000
1 1 1 4 1.000000 123.982957 24.249146 -28.300000 0.500000 0.000000 0.000000 0.000000
1 1 1 4 1.000000 123.985912 24.249127 -9.818000 0.500000 0.000000 0.000000 0.000000
1 1 1 4 1.000000 123.988867 24.249108 -2.269000 0.500000 0.000000 0.000000 0.000000
1 1 1 4 1.000000 123.991822 24.249089 -2.135600 0.500000 0.000000 0.000000 0.000000
1 1 1 4 1.000000 124.027279 24.248853 -5.300000 0.500000 0.000000 0.000000 0.000000
1 1 1 4 1.000000 124.030234 24.248833 -4.046800 0.500000 0.000000 0.000000 0.000000
1 1 1 4 1.000000 124.033189 24.248813 -1.544300 0.500000 0.000000 0.000000 0.000000
1 1 1 4 1.000000 124.036144 24.248793 -1.323100 0.500000 0.000000 0.000000 0.000000
1 1 1 4 1.000000 124.039098 24.248773 -6.669300 0.500000 0.000000 0.000000 0.000000
1 1 1 4 1.000000 124.042053 24.248753 -20.800000 0.500000 0.000000 0.000000 0.000000
1 1 1 4 1.000000 124.045008 24.248733 -23.550000 0.500000 0.000000 0.000000 0.000000
1 1 1 4 1.000000 124.092283 24.248401 -20.311000 0.500000 0.000000 0.000000 0.000000
1 1 1 4 1.000000 124.095238 24.248379 -7.710900 0.500000 0.000000 0.000000 0.000000
1 1 1 4 1.000000 124.098193 24.248358 -5.519400 0.500000 0.000000 0.000000 0.000000
1 1 1 4 1.000000 124.101147 24.248337 -3.188200 0.500000 0.000000 0.000000 0.000000
1 1 1 4 1.000000 124.104102 24.248315 -2.896900 0.500000 0.000000 0.000000 0.000000
1 1 1 4 1.000000 124.118875 24.248207 -7.027600 0.500000 0.000000 0.000000 0.000000
1 1 1 4 1.000000 124.121830 24.248186 -12.151000 0.500000 0.000000 0.000000 0.000000
1 1 1 4 1.000000 124.124785 24.248164 -23.615000 0.500000 0.000000 0.000000 0.000000
1 1 1 4 1.000000 123.852961 24.252640 -11.747000 0.500000 0.000000 0.000000 0.000000
1 1 1 4 1.000000 123.867736 24.252556 -1.200000 0.500000 0.000000 0.000000 0.000000
1 1 1 4 1.000000 123.870691 24.252539 -1.200000 0.500000 0.000000 0.000000 0.000000
1 1 1 4 1.000000 123.873646 24.252523 -1.200000 0.500000 0.000000 0.000000 0.000000
1 1 1 4 1.000000 123.876601 24.252506 -1.426400 0.500000 0.000000 0.000000 0.000000
1 1 1 4 1.000000 123.879556 24.252489 -1.486600 0.500000 0.000000 0.000000 0.000000
1 1 1 4 1.000000 123.882511 24.252471 -1.394200 0.500000 0.000000 0.000000 0.000000
1 1 1 4 1.000000 123.885466 24.252454 -1.625100 0.500000 0.000000 0.000000 0.000000
1 1 1 4 1.000000 123.888421 24.252437 -1.664400 0.500000 0.000000 0.000000 0.000000
1 1 1 4 1.000000 123.891376 24.252420 -1.579600 0.500000 0.000000 0.000000 0.000000
1 1 1 4 1.000000 123.900241 24.252367 -14.457000 0.500000 0.000000 0.000000 0.000000
1 1 1 4 1.000000 123.903196 24.252350 -19.300000 0.500000 0.000000 0.000000 0.000000
1 1 1 4 1.000000 123.906150 24.252332 -9.300000 0.500000 0.000000 0.000000 0.000000
1 1 1 4 1.000000 123.909105 24.252315 -9.300000 0.500000 0.000000 0.000000 0.000000
1 1 1 4 1.000000 123.912060 24.252297 -8.300000 0.500000 0.000000 0.000000 0.000000
1 1 1 4 1.000000 123.915015 24.252279 -12.300000 0.500000 0.000000 0.000000 0.000000
1 1 1 4 1.000000 123.917970 24.252262 -13.300000 0.500000 0.000000 0.000000 0.000000
1 1 1 4 1.000000 123.920925 24.252244 -13.300000 0.500000 0.000000 0.000000 0.000000
1 1 1 4 1.000000 123.923880 24.252226 -10.340000 0.500000 0.000000 0.000000 0.000000
1 1 1 4 1.000000 123.926835 24.252208 -9.300000 0.500000 0.000000 0.000000 0.000000
1 1 1 4 1.000000 123.929790 24.252190 -9.300000 0.500000 0.000000 0.000000 0.000000
1 1 1 4 1.000000 123.932745 24.252172 -12.300000 0.500000 0.000000 0.000000 0.000000
1 1 1 4 1.000000 123.935700 24.252154 -8.300000 0.500000 0.000000 0.000000 0.000000
1 1 1 4 1.000000 123.938655 24.252135 -7.673800 0.500000 0.000000 0.000000 0.000000
1 1 1 4 1.000000 123.941610 24.252117 -7.599400 0.500000 0.000000 0.000000 0.000000
1 1 1 4 1.000000 123.944565 24.252099 -8.318300 0.500000 0.000000 0.000000 0.000000
1 1 1 4 1.000000 123.947520 24.252080 -9.031600 0.500000 0.000000 0.000000 0.000000
1 1 1 4 1.000000 123.950474 24.252062 -14.300000 0.500000 0.000000 0.000000 0.000000
1 1 1 4 1.000000 123.953429 24.252043 -20.597000 0.500000 0.000000 0.000000 0.000000
1 1 1 4 1.000000 123.956384 24.252025 -29.129000 0.500000 0.000000 0.000000 0.000000
1 1 1 4 1.000000 123.971159 24.251931 -24.300000 0.500000 0.000000 0.000000 0.000000
1 1 1 4 1.000000 123.982978 24.251855 -28.425000 0.500000 0.000000 0.000000 0.000000
1 1 1 4 1.000000 123.985933 24.251836 -18.148000 0.500000 0.000000 0.000000 0.000000
1 1 1 4 1.000000 123.988888 24.251817 -3.628500 0.500000 0.000000 0.000000 0.000000
1 1 1 4 1.000000 123.991843 24.251798 -2.004600 0.500000 0.000000 0.000000 0.000000
1 1 1 4 1.000000 123.994798 24.251779 -1.942600 0.500000 0.000000 0.000000 0.000000
1 1 1 4 1.000000 124.024346 24.251582 -1.141600 0.500000 0.000000 0.000000 0.000000
1 1 1 4 1.000000 124.027301 24.251563 -2.664900 0.500000 0.000000 0.000000 0.000000
1 1 1 4 1.000000 124.030256 24.251543 -2.909400 0.500000 0.000000 0.000000 0.000000
1 1 1 4 1.000000 124.033211 24.251523 -2.163000 0.500000 0.000000 0.000000 0.000000
1 1 1 4 1.000000 124.036165 24.251502 -4.615100 0.500000 0.000000 0.000000 0.000000
1 1 1 4 1.000000 124.039120 24.251482 -19.633000 0.500000 0.000000 0.000000 0.000000
1 1 1 4 1.000000 124.042075 24.251462 -23.445000 0.500000 0.000000 0.000000 0.000000
1 1 1 4 1.000000 124.045030 24.251442 -19.300000 0.500000 0.000000 0.000000 0.000000
1 1 1 4 1.000000 124.089352 24.251131 -24.300000 0.500000 0.000000 0.000000 0.000000
1 1 1 4 1.000000 124.092306 24.251110 -9.300000 0.500000 0.000000 0.000000 0.000000
1 1 1 4 1.000000 124.095261 24.251088 -3.485300 0.500000 0.000000 0.000000 0.000000
1 1 1 4 1.000000 124.124808 24.250873 -7.328600 0.500000 0.000000 0.000000 0.000000
1 1 1 4 1.000000 124.127763 24.250851 -13.086000 0.500000 0.000000 0.000000 0.000000
1 1 1 4 1.000000 124.130718 24.250829 -26.851000 0.500000 0.000000 0.000000 0.000000
1 1 1 4 1.000000 123.847069 24.255382 -13.343000 0.500000 0.000000 0.000000 0.000000
1 1 1 4 1.000000 123.850024 24.255366 -4.300000 0.500000 0.000000 0.000000 0.000000
1 1 1 4 1.000000 123.855934 24.255333 -1.000000 0.500000 0.000000 0.000000 0.000000
1 1 1 4 1.000000 123.858889 24.255316 -1.000000 0.500000 0.000000 0.000000 0.000000
1 1 1 4 1.000000 123.864799 24.255282 -1.000000 0.500000 0.000000 0.000000 0.000000
1 1 1 4 1.000000 123.867754 24.255266 -1.000000 0.500000 0.000000 0.000000 0.000000
1 1 1 4 1.000000 123.879574 24.255198 -1.118000 0.500000 0.000000 0.000000 0.000000
1 1 1 4 1.000000 123.882529 24.255181 -1.356700 0.500000 0.000000 0.000000 0.000000
1 1 1 4 1.000000 123.885485 24.255163 -1.749500 0.500000 0.000000 0.000000 0.000000
1 1 1 4 1.000000 123.888440 24.255146 -1.875900 0.500000 0.000000 0.000000 0.000000
1 1 1 4 1.000000 123.891395 24.255129 -2.135600 0.500000 0.000000 0.000000 0.000000
1 1 1 4 1.000000 123.894350 24.255112 -2.771500 0.500000 0.000000 0.000000 0.000000
1 1 1 4 1.000000 123.897305 24.255094 -2.629000 0.500000 0.000000 0.000000 0.000000
1 1 1 4 1.000000 123.900260 24.255077 -14.300000 0.500000 0.000000 0.000000 0.000000
1 1 1 4 1.000000 123.903215 24.255059 -14.300000 0.500000 0.000000 0.000000 0.000000
1 1 1 4 1.000000 123.906170 24.255042 -6.256400 0.500000 0.000000 0.000000 0.000000
1 1 1 4 1.000000 123.909125 24.255024 -5.241000 0.500000 0.000000 0.000000 0.000000
1 1 1 4 1.000000 123.912080 24.255006 -4.798500 0.500000 0.000000 0.000000 0.000000
1 1 1 4 1.000000 123.915035 24.254989 -9.550000 0.500000 0.000000 0.000000 0.000000
1 1 1 4 1.000000 123.917990 24.254971 -12.338000 0.500000 0.000000 0.000000 0.000000
1 1 1 4 1.000000 123.920945 24.254953 -12.404000 0.500000 0.000000 0.000000 0.000000
1 1 1 4 1.000000 123.923900 24.254935 -11.675000 0.500000 0.000000 0.000000 0.000000
1 1 1 4 1.000000 123.926855 24.254917 -9.300000 0.500000 0.000000 0.000000 0.000000
1 1 1 4 1.000000 123.929810 24.254899 -10.300000 0.500000 0.000000 0.000000 0.000000
1 1 1 4 1.000000 123.932765 24.254881 -14.300000 0.500000 0.000000 0.000000 0.000000
1 1 1 4 1.000000 123.935720 24.254863 -7.300000 0.500000 0.000000 0.000000 0.000000
1 1 1 4 1.000000 123.938675 24.254845 -8.300000 0.500000 0.000000 0.000000 0.000000
1 1 1 4 1.000000 123.941630 24.254826 -6.775300 0.500000 0.000000 0.000000 0.000000
1 1 1 4 1.000000 123.944585 24.254808 -6.300000 0.500000 0.000000 0.000000 0.000000
1 1 1 4 1.000000 123.947540 24.254790 -9.300000 0.500000 0.000000 0.000000 0.000000
1 1 1 4 1.000000 123.950495 24.254771 -19.300000 0.500000 0.000000 0.000000 0.000000
1 1 1 4 1.000000 123.953450 24.254753 -24.360000 0.500000 0.000000 0.000000 0.000000
1 1 1 4 1.000000 123.968224 24.254659 -7.932600 0.500000 0.000000 0.000000 0.000000
1 1 1 4 1.000000 123.971179 24.254640 -20.567000 0.500000 0.000000 0.000000 0.000000
1 1 1 4 1.000000 123.985954 24.254545 -21.708000 0.500000 0.000000 0.000000 0.000000
1 1 1 4 1.000000 123.988909 24.254526 -5.800000 0.500000 0.000000 0.000000 0.000000
1 1 1 4 1.000000 123.991864 24.254507 -2.070000 0.500000 0.000000 0.000000 0.000000
1 1 1 4 1.000000 123.994819 24.254488 -1.875900 0.500000 0.000000 0.000000 0.000000
1 1 1 4 1.000000 123.997774 24.254468 -1.323100 0.500000 0.000000 0.000000 0.000000
1 1 1 4 1.000000 124.000729 24.254449 -2.128000 0.500000 0.000000 0.000000 0.000000
1 1 1 4 1.000000 124.003684 24.254430 -1.089700 0.500000 0.000000 0.000000 0.000000
1 1 1 4 1.000000 124.024368 24.254292 -1.904100 0.500000 0.000000 0.000000 0.000000
1 1 1 4 1.000000 124.027323 24.254272 -9.300000 0.500000 0.000000 0.000000 0.000000
1 1 1 4 1.000000 124.030278 24.254252 -19.300000 0.500000 0.000000 0.000000 0.000000
1 1 1 4 1.000000 124.033233 24.254232 -23.300000 0.500000 0.000000 0.000000 0.000000
1 1 1 4 1.000000 124.036187 24.254212 -25.473000 0.500000 0.000000 0.000000 0.000000
1 1 1 4 1.000000 124.039142 24.254191 -28.196000 0.500000 0.000000 0.000000 0.000000
1 1 1 4 1.000000 124.089375 24.253840 -14.300000 0.500000 0.000000 0.000000 0.000000
1 1 1 4 1.000000 124.092330 24.253819 -3.917800 0.500000 0.000000 0.000000 0.000000
1 1 1 4 1.000000 124.098239 24.253776 -1.471600 0.500000 0.000000 0.000000 0.000000
1 1 1 4 1.000000 124.101194 24.253755 -1.506500 0.500000 0.000000 0.000000 0.000000
1 1 1 4 1.000000 124.104149 24.253733 -1.438000 0.500000 0.000000 0.000000 0.000000
1 1 1 4 1.000000 124.107104 24.253712 -1.438000 0.500000 0.000000 0.000000 0.000000
1 1 1 4 1.000000 124.110058 24.253690 -1.738400 0.500000 0.000000 0.000000 0.000000
1 1 1 4 1.000000 124.113013 24.253669 -5.526400 0.500000 0.000000 0.000000 0.000000
1 1 1 4 1.000000 124.115968 24.253647 -1.701300 0.500000 0.000000 0.000000 0.000000
1 1 1 4 1.000000 124.118923 24.253625 -2.617800 0.500000 0.000000 0.000000 0.000000
1 1 1 4 1.000000 124.121878 24.253604 -2.914000 0.500000 0.000000 0.000000 0.000000
1 1 1 4 1.000000 124.127787 24.253560 -5.226500 0.500000 0.000000 0.000000 0.000000
1 1 1 4 1.000000 124.130742 24.253538 -13.188000 0.500000 0.000000 0.000000 0.000000
1 1 1 4 1.000000 124.133697 24.253516 -20.707000 0.500000 0.000000 0.000000 0.000000
1 1 1 4 1.000000 124.136651 24.253494 -26.758000 0.500000 0.000000 0.000000 0.000000
1 1 1 4 1.000000 123.838221 24.258141 -27.317000 0.500000 0.000000 0.000000 0.000000
1 1 1 4 1.000000 123.841177 24.258124 -14.876000 0.500000 0.000000 0.000000 0.000000
1 1 1 4 1.000000 123.844132 24.258108 -10.664000 0.500000 0.000000 0.000000 0.000000
1 1 1 4 1.000000 123.847087 24.258092 -1.300000 0.500000 0.000000 0.000000 0.000000
1 1 1 4 1.000000 123.852997 24.258059 -1.000000 0.500000 0.000000 0.000000 0.000000
1 1 1 4 1.000000 123.855952 24.258042 -1.000000 0.500000 0.000000 0.000000 0.000000
1 1 1 4 1.000000 123.858907 24.258025 -1.000000 0.500000 0.000000 0.000000 0.000000
1 1 1 4 1.000000 123.882548 24.257890 -1.189400 0.500000 0.000000 0.000000 0.000000
1 1 1 4 1.000000 123.885503 24.257873 -1.356700 0.500000 0.000000 0.000000 0.000000
1 1 1 4 1.000000 123.888458 24.257856 -1.664000 0.500000 0.000000 0.000000 0.000000
1 1 1 4 1.000000 123.891413 24.257838 -2.190400 0.500000 0.000000 0.000000 0.000000
1 1 1 4 1.000000 123.894369 24.257821 -2.202300 0.500000 0.000000 0.000000 0.000000
1 1 1 4 1.000000 123.897324 24.257803 -2.474400 0.500000 0.000000 0.000000 0.000000
1 1 1 4 1.000000 123.900279 24.257786 -2.032500 0.500000 0.000000 0.000000 0.000000
1 1 1 4 1.000000 123.903234 24.257768 -10.133000 0.500000 0.000000 0.000000 0.000000
1 1 1 4 1.000000 123.906189 24.257751 -1.875900 0.500000 0.000000 0.000000 0.000000
1 1 1 4 1.000000 123.912099 24.257716 -6.823000 0.500000 0.000000 0.000000 0.000000
1 1 1 4 1.000000 123.915054 24.257698 -6.633500 0.500000 0.000000 0.000000 0.000000
1 1 1 4 1.000000 123.918009 24.257680 -9.300000 0.500000 0.000000 0.000000 0.000000
1 1 1 4 1.000000 123.920964 24.257662 -11.520000 0.500000 0.000000 0.000000 0.000000
1 1 1 4 1.000000 123.923919 24.257644 -11.085000 0.500000 0.000000 0.000000 0.000000
1 1 1 4 1.000000 123.926874 24.257626 -8.572900 0.500000 0.000000 0.000000 0.000000
1 1 1 4 1.000000 123.929829 24.257608 -9.446000 0.500000 0.000000 0.000000 0.000000
1 1 1 4 1.000000 123.932784 24.257590 -14.300000 0.500000 0.000000 0.000000 0.000000
1 1 1 4 1.000000 123.935740 24.257572 -20.967000 0.500000 0.000000 0.000000 0.000000
1 1 1 4 1.000000 123.938695 24.257554 -14.300000 0.500000 0.000000 0.000000 0.000000
1 1 1 4 1.000000 123.941650 24.257536 -7.258400 0.500000 0.000000 0.000000 0.000000
1 1 1 4 1.000000 123.944605 24.257517 -5.270500 0.500000 0.000000 0.000000 0.000000
1 1 1 4 1.000000 123.947560 24.257499 -20.550000 0.500000 0.000000 0.000000 0.000000
1 1 1 4 1.000000 123.950515 24.257480 -13.300000 0.500000 0.000000 0.000000 0.000000
1 1 1 4 1.000000 123.953470 24.257462 -14.730000 0.500000 0.000000 0.000000 0.000000
1 1 1 4 1.000000 123.956425 24.257443 -27.807000 0.500000 0.000000 0.000000 0.000000
1 1 1 4 1.000000 123.965290 24.257387 -21.576000 0.500000 0.000000 0.000000 0.000000
1 1 1 4 1.000000 123.968245 24.257369 -8.130600 0.500000 0.000000 0.000000 0.000000
1 1 1 4 1.000000 123.971200 24.257350 -23.300000 0.500000 0.000000 0.000000 0.000000
1 1 1 4 1.000000 123.983020 24.257274 -28.946000 0.500000 0.000000 0.000000 0.000000
1 1 1 4 1.000000 123.985975 24.257255 -19.300000 0.500000 0.000000 0.000000 0.000000
1 1 1 4 1.000000 123.988930 24.257235 -11.300000 0.500000 0.000000 0.000000 0.000000
1 1 1 4 1.000000 123.991885 24.257216 -2.210500 0.500000 0.000000 0.000000 0.000000
1 1 1 4 1.000000 123.994840 24.257197 -1.932200 0.500000 0.000000 0.000000 0.000000
1 1 1 4 1.000000 123.997795 24.257178 -1.749500 0.500000 0.000000 0.000000 0.000000
1 1 1 4 1.000000 124.000750 24.257158 -1.749500 0.500000 0.000000 0.000000 0.000000
1 1 1 4 1.000000 124.003705 24.257139 -1.382400 0.500000 0.000000 0.000000 0.000000
1 1 1 4 1.000000 124.006660 24.257119 -1.147200 0.500000 0.000000 0.000000 0.000000
1 1 1 4 1.000000 124.009615 24.257100 -1.280000 0.500000 0.000000 0.000000 0.000000
1 1 1 4 1.000000 124.012570 24.257080 -6.044800 0.500000 0.000000 0.000000 0.000000
1 1 1 4 1.000000 124.021435 24.257021 -1.797100 0.500000 0.000000 0.000000 0.000000
1 1 1 4 1.000000 124.024390 24.257001 -6.996100 0.500000 0.000000 0.000000 0.000000
1 1 1 4 1.000000 124.027345 24.256981 -19.252000 0.500000 0.000000 0.000000 0.000000
1 1 1 4 1.000000 124.030299 24.256961 -24.797000 0.500000 0.000000 0.000000 0.000000
1 1 1 4 1.000000 124.033254 24.256941 -27.300000 0.500000 0.000000 0.000000 0.000000
1 1 1 4 1.000000 124.036209 24.256921 -29.300000 0.500000 0.000000 0.000000 0.000000
1 1 1 4 1.000000 124.089398 24.256549 -8.517200 0.500000 0.000000 0.000000 0.000000
1 1 1 4 1.000000 124.092353 24.256528 -3.342300 0.500000 0.000000 0.000000 0.000000
1 1 1 4 1.000000 124.098262 24.256485 -1.348800 0.500000 0.000000 0.000000 0.000000
1 1 1 4 1.000000 124.101217 24.256464 -1.426300 0.500000 0.000000 0.000000 0.000000
1 1 1 4 1.000000 124.104172 24.256443 -5.300000 0.500000 0.000000 0.000000 0.000000
1 1 1 4 1.000000 124.107127 24.256421 -1.563300 0.500000 0.000000 0.000000 0.000000
1 1 1 4 1.000000 124.110082 24.256399 -1.563300 0.500000 0.000000 0.000000 0.000000
1 1 1 4 1.000000 124.113037 24.256378 -6.223400 0.500000 0.000000 0.000000 0.000000
1 1 1 4 1.000000 124.115992 24.256356 -1.797100 0.500000 0.000000 0.000000 0.000000
1 1 1 4 1.000000 124.118946 24.256335 -1.664400 0.500000 0.000000 0.000000 0.000000
1 1 1 4 1.000000 124.121901 24.256313 -1.834500 0.500000 0.000000 0.000000 0.000000
1 1 1 4 1.000000 124.124856 24.256291 -2.171900 0.500000 0.000000 0.000000 0.000000
1 1 1 4 1.000000 124.130766 24.256247 -6.107200 0.500000 0.000000 0.000000 0.000000
1 1 1 4 1.000000 124.133721 24.256225 -10.569000 0.500000 0.000000 0.000000 0.000000
1 1 1 4 1.000000 124.136675 24.256203 -19.300000 0.500000 0.000000 0.000000 0.000000
1 1 1 4 1.000000 124.139630 24.256181 -19.300000 0.500000 0.000000 0.000000 0.000000
1 1 1 4 1.000000 124.142585 24.256159 -19.300000 0.500000 0.000000 0.000000 0.000000
1 1 1 4 1.000000 124.145540 24.256137 -29.300000 0.500000 0.000000 0.000000 0.000000
1 1 1 4 1.000000 123.835284 24.260866 -28.445000 0.500000 0.000000 0.000000 0.000000
1 1 1 4 1.000000 123.838239 24.260850 -10.300000 0.500000 0.000000 0.000000 0.000000
1 1 1 4 1.000000 123.844150 24.260817 -2.493900 0.500000 0.000000 0.000000 0.000000
1 1 1 4 1.000000 123.850060 24.260784 -1.000000 0.500000 0.000000 0.000000 0.000000
1 1 1 4 1.000000 123.853015 24.260768 -1.000000 0.500000 0.000000 0.000000 0.000000
1 1 1 4 1.000000 123.885522 24.260582 -1.178500 0.500000 0.000000 0.000000 0.000000
1 1 1 4 1.000000 123.888477 24.260565 -1.470300 0.500000 0.000000 0.000000 0.000000
1 1 1 4 1.000000 123.891432 24.260547 -2.269000 0.500000 0.000000 0.000000 0.000000
1 1 1 4 1.000000 123.894388 24.260530 -1.785600 0.500000 0.000000 0.000000 0.000000
1 1 1 4 1.000000 123.897343 24.260513 -1.749500 0.500000 0.000000 0.000000 0.000000
1 1 1 4 1.000000 123.900298 24.260495 -2.070100 0.500000 0.000000 0.000000 0.000000
1 1 1 4 1.000000 123.903253 24.260478 -1.776800 0.500000 0.000000 0.000000 0.000000
1 1 1 4 1.000000 123.915073 24.260407 -11.727000 0.500000 0.000000 0.000000 0.000000
1 1 1 4 1.000000 123.918029 24.260389 -6.667900 0.500000 0.000000 0.000000 0.000000
1 1 1 4 1.000000 123.920984 24.260371 -7.550100 0.500000 0.000000 0.000000 0.000000
1 1 1 4 1.000000 123.923939 24.260353 -7.246000 0.500000 0.000000 0.000000 0.000000
1 1 1 4 1.000000 123.926894 24.260336 -12.297000 0.500000 0.000000 0.000000 0.000000
1 1 1 4 1.000000 123.929849 24.260317 -8.050000 0.500000 0.000000 0.000000 0.000000
1 1 1 4 1.000000 123.932804 24.260299 -14.300000 0.500000 0.000000 0.000000 0.000000
1 1 1 4 1.000000 123.935759 24.260281 -14.584000 0.500000 0.000000 0.000000 0.000000
1 1 1 4 1.000000 123.938714 24.260263 -19.748000 0.500000 0.000000 0.000000 0.000000
1 1 1 4 1.000000 123.941670 24.260245 -12.050000 0.500000 0.000000 0.000000 0.000000
1 1 1 4 1.000000 123.944625 24.260226 -12.544000 0.500000 0.000000 0.000000 0.000000
1 1 1 4 1.000000 123.947580 24.260208 -17.425000 0.500000 0.000000 0.000000 0.000000
1 1 1 4 1.000000 123.950535 24.260190 -14.930000 0.500000 0.000000 0.000000 0.000000
1 1 1 4 1.000000 123.953490 24.260171 -8.439600 0.500000 0.000000 0.000000 0.000000
1 1 1 4 1.000000 123.956445 24.260153 -23.729000 0.500000 0.000000 0.000000 0.000000
1 1 1 4 1.000000 123.959400 24.260134 -24.233000 0.500000 0.000000 0.000000 0.000000
1 1 1 4 1.000000 123.962355 24.260115 -25.113000 0.500000 0.000000 0.000000 0.000000
1 1 1 4 1.000000 123.965310 24.260097 -22.199000 0.500000 0.000000 0.000000 0.000000
1 1 1 4 1.000000 123.968265 24.260078 -22.170000 0.500000 0.000000 0.000000 0.000000
1 1 1 4 1.000000 123.971220 24.260059 -20.300000 0.500000 0.000000 0.000000 0.000000
1 1 1 4 1.000000 123.974176 24.260040 -22.395000 0.500000 0.000000 0.000000 0.000000
1 1 1 4 1.000000 123.980086 24.260002 -26.166000 0.500000 0.000000 0.000000 0.000000
1 1 1 4 1.000000 123.985996 24.259964 -14.915000 0.500000 0.000000 0.000000 0.000000
1 1 1 4 1.000000 123.988951 24.259945 -12.300000 0.500000 0.000000 0.000000 0.000000
1 1 1 4 1.000000 123.991906 24.259925 -6.466500 0.500000 0.000000 0.000000 0.000000
1 1 1 4 1.000000 123.994861 24.259906 -2.070000 0.500000 0.000000 0.000000 0.000000
1 1 1 4 1.000000 123.997816 24.259887 -1.932200 0.500000 0.000000 0.000000 0.000000
1 1 1 4 1.000000 124.000771 24.259867 -1.730700 0.500000 0.000000 0.000000 0.000000
1 1 1 4 1.000000 124.003726 24.259848 -1.664400 0.500000 0.000000 0.000000 0.000000
1 1 1 4 1.000000 124.006681 24.259828 -1.797100 0.500000 0.000000 0.000000 0.000000
1 1 1 4 1.000000 124.009636 24.259809 -1.534100 0.500000 0.000000 0.000000 0.000000
1 1 1 4 1.000000 124.012591 24.259789 -7.303700 0.500000 0.000000 0.000000 0.000000
1 1 1 4 1.000000 124.015546 24.259769 -1.034200 0.500000 0.000000 0.000000 0.000000
1 1 1 4 1.000000 124.021456 24.259730 -6.375300 0.500000 0.000000 0.000000 0.000000
1 1 1 4 1.000000 124.024411 24.259710 -20.300000 0.500000 0.000000 0.000000 0.000000
1 1 1 4 1.000000 124.027366 24.259690 -22.229000 0.500000 0.000000 0.000000 0.000000
1 1 1 4 1.000000 124.030321 24.259670 -20.300000 0.500000 0.000000 0.000000 0.000000
1 1 1 4 1.000000 124.033276 24.259650 -20.642000 0.500000 0.000000 0.000000 0.000000
1 1 1 4 1.000000 124.089421 24.259258 -18.050000 0.500000 0.000000 0.000000 0.000000
1 1 1 4 1.000000 124.092376 24.259237 -5.982300 0.500000 0.000000 0.000000 0.000000
1 1 1 4 1.000000 124.095331 24.259216 -1.797100 0.500000 0.000000 0.000000 0.000000
1 1 1 4 1.000000 124.098286 24.259194 -1.664400 0.500000 0.000000 0.000000 0.000000
1 1 1 4 1.000000 124.101241 24.259173 -1.480200 0.500000 0.000000 0.000000 0.000000
1 1 1 4 1.000000 124.104196 24.259152 -1.493500 0.500000 0.000000 0.000000 0.000000
1 1 1 4 1.000000 124.107151 24.259130 -1.563300 0.500000 0.000000 0.000000 0.000000
1 1 1 4 1.000000 124.110105 24.259109 -5.947200 0.500000 0.000000 0.000000 0.000000
1 1 1 4 1.000000 124.113060 24.259087 -7.300000 0.500000 0.000000 0.000000 0.000000
1 1 1 4 1.000000 124.116015 24.259065 -7.010100 0.500000 0.000000 0.000000 0.000000
1 1 1 4 1.000000 124.118970 24.259044 -5.449500 0.500000 0.000000 0.000000 0.000000
1 1 1 4 1.000000 124.121925 24.259022 -1.534100 0.500000 0.000000 0.000000 0.000000
1 1 1 4 1.000000 124.124880 24.259000 -2.060400 0.500000 0.000000 0.000000 0.000000
1 1 1 4 1.000000 124.130790 24.258956 -4.346400 0.500000 0.000000 0.000000 0.000000
1 1 1 4 1.000000 124.133745 24.258934 -12.837000 0.500000 0.000000 0.000000 0.000000
1 1 1 4 1.000000 124.136700 24.258912 -7.550100 0.500000 0.000000 0.000000 0.000000
1 1 1 4 1.000000 124.139654 24.258890 -6.375300 0.500000 0.000000 0.000000 0.000000
1 1 1 4 1.000000 124.142609 24.258868 -6.667900 0.500000 0.000000 0.000000 0.000000
1 1 1 4 1.000000 124.145564 24.258846 -7.994000 0.500000 0.000000 0.000000 0.000000
1 1 1 4 1.000000 124.148519 24.258823 -19.300000 0.500000 0.000000 0.000000 0.000000
1 1 1 4 1.000000 123.820525 24.263656 -29.697000 0.500000 0.000000 0.000000 0.000000
1 1 1 4 1.000000 123.823481 24.263640 -23.883000 0.500000 0.000000 0.000000 0.000000
1 1 1 4 1.000000 123.826436 24.263624 -29.623000 0.500000 0.000000 0.000000 0.000000
1 1 1 4 1.000000 123.829391 24.263608 -16.300000 0.500000 0.000000 0.000000 0.000000
1 1 1 4 1.000000 123.832346 24.263592 -21.696000 0.500000 0.000000 0.000000 0.000000
1 1 1 4 1.000000 123.835302 24.263576 -23.332000 0.500000 0.000000 0.000000 0.000000
1 1 1 4 1.000000 123.838257 24.263559 -1.941800 0.500000 0.000000 0.000000 0.000000
1 1 1 4 1.000000 123.847123 24.263510 -1.000000 0.500000 0.000000 0.000000 0.000000
1 1 1 4 1.000000 123.850078 24.263494 -1.000000 0.500000 0.000000 0.000000 0.000000
1 1 1 4 1.000000 123.888496 24.263274 -1.718300 0.500000 0.000000 0.000000 0.000000
1 1 1 4 1.000000 123.891451 24.263257 -2.035100 0.500000 0.000000 0.000000 0.000000
1 1 1 4 1.000000 123.894406 24.263239 -1.382400 0.500000 0.000000 0.000000 0.000000
1 1 1 4 1.000000 123.897362 24.263222 -2.135600 0.500000 0.000000 0.000000 0.000000
1 1 1 4 1.000000 123.900317 24.263205 -1.664000 0.500000 0.000000 0.000000 0.000000
1 1 1 4 1.000000 123.903272 24.263187 -1.749500 0.500000 0.000000 0.000000 0.000000
1 1 1 4 1.000000 123.915093 24.263116 -1.641800 0.500000 0.000000 0.000000 0.000000
[...]
1 1 1 4 1.000000 124.275502 24.544976 -1.550000 0.500000 0.000000 0.000000 0.000000
1 1 1 4 1.000000 124.278463 24.544951 -6.244400 0.500000 0.000000 0.000000 0.000000
1 1 1 4 1.000000 124.281424 24.544926 -5.069200 0.500000 0.000000 0.000000 0.000000
1 1 1 4 1.000000 124.284386 24.544900 -5.014300 0.500000 0.000000 0.000000 0.000000
1 1 1 4 1.000000 124.287347 24.544875 -1.300000 0.500000 0.000000 0.000000 0.000000
1 1 1 4 1.000000 124.305115 24.544722 -1.000000 0.500000 0.000000 0.000000 0.000000
1 1 1 4 1.000000 124.308077 24.544697 -1.000000 0.500000 0.000000 0.000000 0.000000
1 1 1 4 1.000000 124.311038 24.544671 -1.000000 0.500000 0.000000 0.000000 0.000000
1 1 1 4 1.000000 124.319922 24.544593 -10.014000 0.500000 0.000000 0.000000 0.000000
1 1 1 4 1.000000 124.322883 24.544568 -28.050000 0.500000 0.000000 0.000000 0.000000
1 1 1 4 1.000000 124.266645 24.547760 -29.157000 0.500000 0.000000 0.000000 0.000000
1 1 1 4 1.000000 124.269606 24.547735 -9.402000 0.500000 0.000000 0.000000 0.000000
1 1 1 4 1.000000 124.272567 24.547710 -1.621400 0.500000 0.000000 0.000000 0.000000
1 1 1 4 1.000000 124.275529 24.547685 -4.069200 0.500000 0.000000 0.000000 0.000000
1 1 1 4 1.000000 124.278490 24.547660 -1.480900 0.500000 0.000000 0.000000 0.000000
1 1 1 4 1.000000 124.281452 24.547634 -1.602600 0.500000 0.000000 0.000000 0.000000
1 1 1 4 1.000000 124.284413 24.547609 -2.682400 0.500000 0.000000 0.000000 0.000000
1 1 1 4 1.000000 124.287375 24.547584 -1.462200 0.500000 0.000000 0.000000 0.000000
1 1 1 4 1.000000 124.308105 24.547406 -1.000000 0.500000 0.000000 0.000000 0.000000
1 1 1 4 1.000000 124.311066 24.547380 -1.000000 0.500000 0.000000 0.000000 0.000000
1 1 1 4 1.000000 124.319950 24.547302 -4.974400 0.500000 0.000000 0.000000 0.000000
1 1 1 4 1.000000 124.322912 24.547276 -24.856000 0.500000 0.000000 0.000000 0.000000
1 1 1 4 1.000000 124.269633 24.550443 -24.078000 0.500000 0.000000 0.000000 0.000000
1 1 1 4 1.000000 124.272595 24.550419 -8.889000 0.500000 0.000000 0.000000 0.000000
1 1 1 4 1.000000 124.275556 24.550393 -11.919000 0.500000 0.000000 0.000000 0.000000
1 1 1 4 1.000000 124.278518 24.550368 -12.179000 0.500000 0.000000 0.000000 0.000000
1 1 1 4 1.000000 124.281479 24.550343 -1.275300 0.500000 0.000000 0.000000 0.000000
1 1 1 4 1.000000 124.284441 24.550318 -2.323300 0.500000 0.000000 0.000000 0.000000
1 1 1 4 1.000000 124.317017 24.550037 -1.176700 0.500000 0.000000 0.000000 0.000000
1 1 1 4 1.000000 124.319979 24.550011 -5.221100 0.500000 0.000000 0.000000 0.000000
1 1 1 4 1.000000 124.322940 24.549985 -13.182000 0.500000 0.000000 0.000000 0.000000
1 1 1 4 1.000000 124.325902 24.549959 -20.226000 0.500000 0.000000 0.000000 0.000000
1 1 1 4 1.000000 124.269661 24.553152 -25.838000 0.500000 0.000000 0.000000 0.000000
1 1 1 4 1.000000 124.272622 24.553127 -9.748000 0.500000 0.000000 0.000000 0.000000
1 1 1 4 1.000000 124.275584 24.553102 -13.081000 0.500000 0.000000 0.000000 0.000000
1 1 1 4 1.000000 124.278545 24.553077 -6.157100 0.500000 0.000000 0.000000 0.000000
1 1 1 4 1.000000 124.281507 24.553052 -1.925000 0.500000 0.000000 0.000000 0.000000
1 1 1 4 1.000000 124.320007 24.552720 -2.514300 0.500000 0.000000 0.000000 0.000000
1 1 1 4 1.000000 124.322969 24.552694 -1.082600 0.500000 0.000000 0.000000 0.000000
1 1 1 4 1.000000 124.325930 24.552668 -12.348000 0.500000 0.000000 0.000000 0.000000
1 1 1 4 1.000000 124.328892 24.552642 -21.618000 0.500000 0.000000 0.000000 0.000000
1 1 1 4 1.000000 124.269688 24.555861 -26.522000 0.500000 0.000000 0.000000 0.000000
1 1 1 4 1.000000 124.272649 24.555836 -3.363800 0.500000 0.000000 0.000000 0.000000
1 1 1 4 1.000000 124.322997 24.555403 -1.159700 0.500000 0.000000 0.000000 0.000000
1 1 1 4 1.000000 124.325959 24.555377 -3.859300 0.500000 0.000000 0.000000 0.000000
1 1 1 4 1.000000 124.328920 24.555350 -6.686000 0.500000 0.000000 0.000000 0.000000
1 1 1 4 1.000000 124.331882 24.555324 -12.982000 0.500000 0.000000 0.000000 0.000000
1 1 1 4 1.000000 124.272677 24.558545 -9.853000 0.500000 0.000000 0.000000 0.000000
1 1 1 4 1.000000 124.275639 24.558520 -3.489200 0.500000 0.000000 0.000000 0.000000
1 1 1 4 1.000000 124.331910 24.558033 -1.276200 0.500000 0.000000 0.000000 0.000000
1 1 1 4 1.000000 124.334872 24.558007 -23.883000 0.500000 0.000000 0.000000 0.000000
1 1 1 4 1.000000 124.337834 24.557981 -19.941000 0.500000 0.000000 0.000000 0.000000
1 1 1 4 1.000000 124.340795 24.557954 -21.700000 0.500000 0.000000 0.000000 0.000000
1 1 1 4 1.000000 124.343757 24.557928 -28.336000 0.500000 0.000000 0.000000 0.000000
1 1 1 4 1.000000 124.272704 24.561254 -23.774000 0.500000 0.000000 0.000000 0.000000
1 1 1 4 1.000000 124.275666 24.561229 -6.362500 0.500000 0.000000 0.000000 0.000000
1 1 1 4 1.000000 124.331939 24.560742 -1.487500 0.500000 0.000000 0.000000 0.000000
1 1 1 4 1.000000 124.334901 24.560716 -9.046800 0.500000 0.000000 0.000000 0.000000
1 1 1 4 1.000000 124.340824 24.560663 -5.221600 0.500000 0.000000 0.000000 0.000000
1 1 1 4 1.000000 124.343786 24.560637 -13.083000 0.500000 0.000000 0.000000 0.000000
1 1 1 4 1.000000 124.346748 24.560610 -22.227000 0.500000 0.000000 0.000000 0.000000
1 1 1 4 1.000000 124.275693 24.563938 -7.850000 0.500000 0.000000 0.000000 0.000000
1 1 1 4 1.000000 124.278655 24.563912 -2.623500 0.500000 0.000000 0.000000 0.000000
1 1 1 4 1.000000 124.331968 24.563451 -1.737500 0.500000 0.000000 0.000000 0.000000
1 1 1 4 1.000000 124.334930 24.563424 -4.485200 0.500000 0.000000 0.000000 0.000000
1 1 1 4 1.000000 124.337891 24.563398 -1.185600 0.500000 0.000000 0.000000 0.000000
1 1 1 4 1.000000 124.343815 24.563345 -5.561900 0.500000 0.000000 0.000000 0.000000
1 1 1 4 1.000000 124.346777 24.563319 -15.967000 0.500000 0.000000 0.000000 0.000000
1 1 1 4 1.000000 124.349738 24.563292 -25.800000 0.500000 0.000000 0.000000 0.000000
1 1 1 4 1.000000 124.275721 24.566646 -23.144000 0.500000 0.000000 0.000000 0.000000
1 1 1 4 1.000000 124.278683 24.566621 -16.864000 0.500000 0.000000 0.000000 0.000000
1 1 1 4 1.000000 124.281645 24.566596 -4.488700 0.500000 0.000000 0.000000 0.000000
1 1 1 4 1.000000 124.346805 24.566028 -8.100000 0.500000 0.000000 0.000000 0.000000
1 1 1 4 1.000000 124.349767 24.566001 -21.330000 0.500000 0.000000 0.000000 0.000000
1 1 1 4 1.000000 124.275748 24.569355 -27.300000 0.500000 0.000000 0.000000 0.000000
1 1 1 4 1.000000 124.278710 24.569330 -17.741000 0.500000 0.000000 0.000000 0.000000
1 1 1 4 1.000000 124.281672 24.569305 -4.640900 0.500000 0.000000 0.000000 0.000000
1 1 1 4 1.000000 124.296482 24.569178 -1.000000 0.500000 0.000000 0.000000 0.000000
1 1 1 4 1.000000 124.334987 24.568842 -1.000000 0.500000 0.000000 0.000000 0.000000
1 1 1 4 1.000000 124.337949 24.568816 -1.000000 0.500000 0.000000 0.000000 0.000000
1 1 1 4 1.000000 124.340911 24.568789 -1.000000 0.500000 0.000000 0.000000 0.000000
1 1 1 4 1.000000 124.346834 24.568736 -1.466700 0.500000 0.000000 0.000000 0.000000
1 1 1 4 1.000000 124.349796 24.568710 -12.333000 0.500000 0.000000 0.000000 0.000000
1 1 1 4 1.000000 124.352758 24.568683 -24.279000 0.500000 0.000000 0.000000 0.000000
1 1 1 4 1.000000 124.278738 24.572039 -15.550000 0.500000 0.000000 0.000000 0.000000
1 1 1 4 1.000000 124.284662 24.571988 -1.550000 0.500000 0.000000 0.000000 0.000000
1 1 1 4 1.000000 124.287624 24.571963 -7.094100 0.500000 0.000000 0.000000 0.000000
1 1 1 4 1.000000 124.290586 24.571938 -3.570800 0.500000 0.000000 0.000000 0.000000
1 1 1 4 1.000000 124.335016 24.571551 -1.000000 0.500000 0.000000 0.000000 0.000000
1 1 1 4 1.000000 124.337978 24.571524 -1.000000 0.500000 0.000000 0.000000 0.000000
1 1 1 4 1.000000 124.340940 24.571498 -1.000000 0.500000 0.000000 0.000000 0.000000
1 1 1 4 1.000000 124.349825 24.571419 -5.487500 0.500000 0.000000 0.000000 0.000000
1 1 1 4 1.000000 124.352787 24.571392 -20.568000 0.500000 0.000000 0.000000 0.000000
1 1 1 4 1.000000 124.278765 24.574748 -28.300000 0.500000 0.000000 0.000000 0.000000
1 1 1 4 1.000000 124.281727 24.574722 -9.114800 0.500000 0.000000 0.000000 0.000000
1 1 1 4 1.000000 124.284689 24.574697 -10.900000 0.500000 0.000000 0.000000 0.000000
1 1 1 4 1.000000 124.287651 24.574672 -18.586000 0.500000 0.000000 0.000000 0.000000
1 1 1 4 1.000000 124.290614 24.574647 -8.489200 0.500000 0.000000 0.000000 0.000000
1 1 1 4 1.000000 124.293576 24.574621 -7.094100 0.500000 0.000000 0.000000 0.000000
1 1 1 4 1.000000 124.296538 24.574596 -3.466700 0.500000 0.000000 0.000000 0.000000
1 1 1 4 1.000000 124.338006 24.574233 -1.000000 0.500000 0.000000 0.000000 0.000000
1 1 1 4 1.000000 124.340968 24.574207 -1.000000 0.500000 0.000000 0.000000 0.000000
1 1 1 4 1.000000 124.349854 24.574127 -2.300000 0.500000 0.000000 0.000000 0.000000
1 1 1 4 1.000000 124.352816 24.574101 -12.615000 0.500000 0.000000 0.000000 0.000000
1 1 1 4 1.000000 124.355778 24.574074 -27.091000 0.500000 0.000000 0.000000 0.000000
1 1 1 4 1.000000 124.284717 24.577406 -6.373200 0.500000 0.000000 0.000000 0.000000
1 1 1 4 1.000000 124.287679 24.577381 -4.394300 0.500000 0.000000 0.000000 0.000000
1 1 1 4 1.000000 124.290641 24.577355 -5.940600 0.500000 0.000000 0.000000 0.000000
1 1 1 4 1.000000 124.293603 24.577330 -10.133000 0.500000 0.000000 0.000000 0.000000
1 1 1 4 1.000000 124.296566 24.577305 -4.675000 0.500000 0.000000 0.000000 0.000000
1 1 1 4 1.000000 124.338035 24.576942 -1.000000 0.500000 0.000000 0.000000 0.000000
1 1 1 4 1.000000 124.340997 24.576915 -1.000000 0.500000 0.000000 0.000000 0.000000
1 1 1 4 1.000000 124.343959 24.576889 -1.000000 0.500000 0.000000 0.000000 0.000000
1 1 1 4 1.000000 124.352845 24.576810 -7.274400 0.500000 0.000000 0.000000 0.000000
1 1 1 4 1.000000 124.355807 24.576783 -23.633000 0.500000 0.000000 0.000000 0.000000
1 1 1 4 1.000000 124.284745 24.580115 -25.050000 0.500000 0.000000 0.000000 0.000000
1 1 1 4 1.000000 124.287707 24.580090 -4.700000 0.500000 0.000000 0.000000 0.000000
1 1 1 4 1.000000 124.293631 24.580039 -8.845500 0.500000 0.000000 0.000000 0.000000
1 1 1 4 1.000000 124.296593 24.580013 -6.600000 0.500000 0.000000 0.000000 0.000000
1 1 1 4 1.000000 124.299556 24.579988 -1.125000 0.500000 0.000000 0.000000 0.000000
1 1 1 4 1.000000 124.338064 24.579651 -1.000000 0.500000 0.000000 0.000000 0.000000
1 1 1 4 1.000000 124.341026 24.579624 -1.000000 0.500000 0.000000 0.000000 0.000000
1 1 1 4 1.000000 124.343988 24.579598 -1.000000 0.500000 0.000000 0.000000 0.000000
1 1 1 4 1.000000 124.346950 24.579571 -1.000000 0.500000 0.000000 0.000000 0.000000
1 1 1 4 1.000000 124.352875 24.579518 -2.667300 0.500000 0.000000 0.000000 0.000000
1 1 1 4 1.000000 124.355837 24.579492 -19.186000 0.500000 0.000000 0.000000 0.000000
1 1 1 4 1.000000 124.287735 24.582798 -19.472000 0.500000 0.000000 0.000000 0.000000
1 1 1 4 1.000000 124.290697 24.582773 -5.821700 0.500000 0.000000 0.000000 0.000000
1 1 1 4 1.000000 124.293659 24.582748 -7.953800 0.500000 0.000000 0.000000 0.000000
1 1 1 4 1.000000 124.296621 24.582722 -3.915400 0.500000 0.000000 0.000000 0.000000
1 1 1 4 1.000000 124.338093 24.582359 -1.000000 0.500000 0.000000 0.000000 0.000000
1 1 1 4 1.000000 124.341055 24.582333 -1.000000 0.500000 0.000000 0.000000 0.000000
1 1 1 4 1.000000 124.344017 24.582307 -1.000000 0.500000 0.000000 0.000000 0.000000
1 1 1 4 1.000000 124.346979 24.582280 -1.000000 0.500000 0.000000 0.000000 0.000000
1 1 1 4 1.000000 124.355866 24.582200 -15.144000 0.500000 0.000000 0.000000 0.000000
1 1 1 4 1.000000 124.358828 24.582174 -24.681000 0.500000 0.000000 0.000000 0.000000
1 1 1 4 1.000000 124.290725 24.585482 -19.817000 0.500000 0.000000 0.000000 0.000000
1 1 1 4 1.000000 124.293687 24.585456 -1.948600 0.500000 0.000000 0.000000 0.000000
1 1 1 4 1.000000 124.341084 24.585042 -1.000000 0.500000 0.000000 0.000000 0.000000
1 1 1 4 1.000000 124.344046 24.585015 -1.000000 0.500000 0.000000 0.000000 0.000000
1 1 1 4 1.000000 124.347008 24.584989 -1.000000 0.500000 0.000000 0.000000 0.000000
1 1 1 4 1.000000 124.355895 24.584909 -12.617000 0.500000 0.000000 0.000000 0.000000
1 1 1 4 1.000000 124.358857 24.584882 -19.383000 0.500000 0.000000 0.000000 0.000000
1 1 1 4 1.000000 124.290752 24.588191 -27.633000 0.500000 0.000000 0.000000 0.000000
1 1 1 4 1.000000 124.293715 24.588165 -4.522200 0.500000 0.000000 0.000000 0.000000
1 1 1 4 1.000000 124.296677 24.588140 -1.404500 0.500000 0.000000 0.000000 0.000000
1 1 1 4 1.000000 124.305564 24.588063 -1.244400 0.500000 0.000000 0.000000 0.000000
1 1 1 4 1.000000 124.344075 24.587724 -1.000000 0.500000 0.000000 0.000000 0.000000
1 1 1 4 1.000000 124.347037 24.587698 -1.000000 0.500000 0.000000 0.000000 0.000000
1 1 1 4 1.000000 124.355924 24.587618 -10.570000 0.500000 0.000000 0.000000 0.000000
1 1 1 4 1.000000 124.358886 24.587591 -20.670000 0.500000 0.000000 0.000000 0.000000
1 1 1 4 1.000000 124.293743 24.590874 -21.567000 0.500000 0.000000 0.000000 0.000000
1 1 1 4 1.000000 124.296705 24.590848 -4.734200 0.500000 0.000000 0.000000 0.000000
1 1 1 4 1.000000 124.302630 24.590797 -1.276700 0.500000 0.000000 0.000000 0.000000
1 1 1 4 1.000000 124.305592 24.590772 -1.966700 0.500000 0.000000 0.000000 0.000000
1 1 1 4 1.000000 124.344104 24.590433 -1.000000 0.500000 0.000000 0.000000 0.000000
1 1 1 4 1.000000 124.347066 24.590406 -1.000000 0.500000 0.000000 0.000000 0.000000
1 1 1 4 1.000000 124.355953 24.590326 -9.925000 0.500000 0.000000 0.000000 0.000000
1 1 1 4 1.000000 124.358916 24.590300 -22.454000 0.500000 0.000000 0.000000 0.000000
1 1 1 4 1.000000 124.296733 24.593557 -13.556000 0.500000 0.000000 0.000000 0.000000
1 1 1 4 1.000000 124.302658 24.593506 -2.363800 0.500000 0.000000 0.000000 0.000000
1 1 1 4 1.000000 124.305621 24.593480 -6.992300 0.500000 0.000000 0.000000 0.000000
1 1 1 4 1.000000 124.338208 24.593194 -1.000000 0.500000 0.000000 0.000000 0.000000
1 1 1 4 1.000000 124.341170 24.593168 -1.000000 0.500000 0.000000 0.000000 0.000000
1 1 1 4 1.000000 124.344133 24.593141 -1.000000 0.500000 0.000000 0.000000 0.000000
1 1 1 4 1.000000 124.355983 24.593035 -8.027300 0.500000 0.000000 0.000000 0.000000
1 1 1 4 1.000000 124.358945 24.593008 -27.300000 0.500000 0.000000 0.000000 0.000000
1 1 1 4 1.000000 124.299723 24.596240 -6.360600 0.500000 0.000000 0.000000 0.000000
1 1 1 4 1.000000 124.305649 24.596189 -7.160500 0.500000 0.000000 0.000000 0.000000
1 1 1 4 1.000000 124.338237 24.595903 -1.000000 0.500000 0.000000 0.000000 0.000000
1 1 1 4 1.000000 124.341199 24.595877 -1.000000 0.500000 0.000000 0.000000 0.000000
1 1 1 4 1.000000 124.356012 24.595744 -11.550000 0.500000 0.000000 0.000000 0.000000
1 1 1 4 1.000000 124.299751 24.598949 -21.740000 0.500000 0.000000 0.000000 0.000000
1 1 1 4 1.000000 124.302714 24.598924 -2.441000 0.500000 0.000000 0.000000 0.000000
1 1 1 4 1.000000 124.338265 24.598612 -1.000000 0.500000 0.000000 0.000000 0.000000
1 1 1 4 1.000000 124.341228 24.598585 -1.000000 0.500000 0.000000 0.000000 0.000000
1 1 1 4 1.000000 124.356041 24.598453 -9.405000 0.500000 0.000000 0.000000 0.000000
1 1 1 4 1.000000 124.302742 24.601632 -8.128600 0.500000 0.000000 0.000000 0.000000
1 1 1 4 1.000000 124.341257 24.601294 -1.000000 0.500000 0.000000 0.000000 0.000000
1 1 1 4 1.000000 124.344220 24.601268 -1.000000 0.500000 0.000000 0.000000 0.000000
1 1 1 4 1.000000 124.356070 24.601161 -18.189000 0.500000 0.000000 0.000000 0.000000
1 1 1 4 1.000000 124.302770 24.604341 -21.164000 0.500000 0.000000 0.000000 0.000000
1 1 1 4 1.000000 124.305733 24.604315 -3.273700 0.500000 0.000000 0.000000 0.000000
1 1 1 4 1.000000 124.341286 24.604003 -1.000000 0.500000 0.000000 0.000000 0.000000
1 1 1 4 1.000000 124.344248 24.603976 -1.000000 0.500000 0.000000 0.000000 0.000000
1 1 1 4 1.000000 124.353137 24.603897 -3.352600 0.500000 0.000000 0.000000 0.000000
1 1 1 4 1.000000 124.356099 24.603870 -26.592000 0.500000 0.000000 0.000000 0.000000
1 1 1 4 1.000000 124.305761 24.607024 -7.953800 0.500000 0.000000 0.000000 0.000000
1 1 1 4 1.000000 124.329464 24.606817 -1.000000 0.500000 0.000000 0.000000 0.000000
1 1 1 4 1.000000 124.332426 24.606790 -1.000000 0.500000 0.000000 0.000000 0.000000
1 1 1 4 1.000000 124.335389 24.606764 -1.000000 0.500000 0.000000 0.000000 0.000000
1 1 1 4 1.000000 124.338352 24.606738 -1.000000 0.500000 0.000000 0.000000 0.000000
1 1 1 4 1.000000 124.341315 24.606711 -1.000000 0.500000 0.000000 0.000000 0.000000
1 1 1 4 1.000000 124.350203 24.606632 -1.000000 0.500000 0.000000 0.000000 0.000000
1 1 1 4 1.000000 124.353166 24.606605 -14.050000 0.500000 0.000000 0.000000 0.000000
1 1 1 4 1.000000 124.305789 24.609733 -19.467000 0.500000 0.000000 0.000000 0.000000
1 1 1 4 1.000000 124.308752 24.609707 -2.060900 0.500000 0.000000 0.000000 0.000000
1 1 1 4 1.000000 124.323566 24.609578 -1.228600 0.500000 0.000000 0.000000 0.000000
1 1 1 4 1.000000 124.329492 24.609525 -1.000000 0.500000 0.000000 0.000000 0.000000
1 1 1 4 1.000000 124.332455 24.609499 -1.000000 0.500000 0.000000 0.000000 0.000000
1 1 1 4 1.000000 124.335418 24.609473 -1.000000 0.500000 0.000000 0.000000 0.000000
1 1 1 4 1.000000 124.338381 24.609447 -1.000000 0.500000 0.000000 0.000000 0.000000
1 1 1 4 1.000000 124.350232 24.609341 -15.021000 0.500000 0.000000 0.000000 0.000000
1 1 1 4 1.000000 124.308780 24.612416 -9.391000 0.500000 0.000000 0.000000 0.000000
1 1 1 4 1.000000 124.320632 24.612312 -1.162100 0.500000 0.000000 0.000000 0.000000
1 1 1 4 1.000000 124.323595 24.612286 -2.525400 0.500000 0.000000 0.000000 0.000000
1 1 1 4 1.000000 124.326558 24.612260 -1.253100 0.500000 0.000000 0.000000 0.000000
1 1 1 4 1.000000 124.347298 24.612076 -3.633300 0.500000 0.000000 0.000000 0.000000
1 1 1 4 1.000000 124.350261 24.612049 -19.657000 0.500000 0.000000 0.000000 0.000000
1 1 1 4 1.000000 124.308808 24.615125 -24.387000 0.500000 0.000000 0.000000 0.000000
1 1 1 4 1.000000 124.311771 24.615099 -8.594100 0.500000 0.000000 0.000000 0.000000
1 1 1 4 1.000000 124.320660 24.615021 -4.396200 0.500000 0.000000 0.000000 0.000000
1 1 1 4 1.000000 124.323623 24.614995 -2.320600 0.500000 0.000000 0.000000 0.000000
1 1 1 4 1.000000 124.326586 24.614969 -1.517400 0.500000 0.000000 0.000000 0.000000
1 1 1 4 1.000000 124.341401 24.614838 -1.440000 0.500000 0.000000 0.000000 0.000000
1 1 1 4 1.000000 124.344364 24.614811 -10.500000 0.500000 0.000000 0.000000 0.000000
1 1 1 4 1.000000 124.347327 24.614785 -23.123000 0.500000 0.000000 0.000000 0.000000
1 1 1 4 1.000000 124.311800 24.617808 -21.800000 0.500000 0.000000 0.000000 0.000000
1 1 1 4 1.000000 124.314763 24.617782 -3.540000 0.500000 0.000000 0.000000 0.000000
1 1 1 4 1.000000 124.320689 24.617730 -6.707400 0.500000 0.000000 0.000000 0.000000
1 1 1 4 1.000000 124.323652 24.617704 -5.269200 0.500000 0.000000 0.000000 0.000000
1 1 1 4 1.000000 124.332541 24.617625 -4.119700 0.500000 0.000000 0.000000 0.000000
1 1 1 4 1.000000 124.335504 24.617599 -4.247400 0.500000 0.000000 0.000000 0.000000
1 1 1 4 1.000000 124.338467 24.617573 -8.888200 0.500000 0.000000 0.000000 0.000000
1 1 1 4 1.000000 124.341430 24.617546 -16.900000 0.500000 0.000000 0.000000 0.000000
1 1 1 4 1.000000 124.317754 24.620465 -12.027000 0.500000 0.000000 0.000000 0.000000
1 1 1 4 1.000000 124.320717 24.620439 -14.472000 0.500000 0.000000 0.000000 0.000000
1 1 1 4 1.000000 124.323681 24.620413 -17.405000 0.500000 0.000000 0.000000 0.000000
1 1 1 4 1.000000 124.326644 24.620387 -9.488000 0.500000 0.000000 0.000000 0.000000
1 1 1 4 1.000000 124.329607 24.620360 -13.514000 0.500000 0.000000 0.000000 0.000000
1 1 1 4 1.000000 124.332570 24.620334 -15.657000 0.500000 0.000000 0.000000 0.000000
1 1 1 4 1.000000 124.335533 24.620308 -22.514000 0.500000 0.000000 0.000000 0.000000
1 1 1 4 1.000000 124.338496 24.620282 -29.800000 0.500000 0.000000 0.000000 0.000000
1 1 1 4 1.000000 124.323709 24.623121 -29.623000 0.500000 0.000000 0.000000 0.000000
1 1 1 4 1.000000 124.326672 24.623095 -24.754000 0.500000 0.000000 0.000000 0.000000
1 1 1 4 1.000000 124.329635 24.623069 -27.800000 0.500000 0.000000 0.000000 0.000000
1 1 1 4 1.000000 124.332599 24.623043 -29.300000 0.500000 0.000000 0.000000 0.000000
